data_image0
_chemical_formula_structural       O2C8OH8O2C8OH8O2C8OH8O2C8OH8O2C8OH8O2C8OH8O2C8OH8O2C8OH8O2C8OH8O2C8OH8O2C8OH8O2C8OH8O2C8OH8O2C8OH8O2C8OH8O2C8OH8ZrOZrOZrOZrOZrOZrOZrOZrOZr4O16H8Co8NCHNCHNCHNCHNCHNCHNCHNCHNCHNCHNCHNCHNCHNCHNCHNCHNCNCNCNCNCNCNCNCCuICuICuICuICuICuICuICuI5OC2OC2OC2OC2OC2OC2OC2OC22H16
_chemical_formula_sum              "O80 C188 H168 Zr12 Co8 N24 Cu8 I12"
_cell_length_a       24.1696
_cell_length_b       24.1696
_cell_length_c       18.9154
_cell_angle_alpha    90.0
_cell_angle_beta     90.0
_cell_angle_gamma    90.0

_space_group_name_H-M_alt    "P 1"
_space_group_IT_number       1

loop_
  _space_group_symop_operation_xyz
  'x, y, z'

loop_
  _atom_site_type_symbol
  _atom_site_label
  _atom_site_symmetry_multiplicity
  _atom_site_fract_x
  _atom_site_fract_y
  _atom_site_fract_z
  _atom_site_occupancy
  O   O1        1.0  0.11752  0.43605  0.13933000000000004  1.0000
  O   O2        1.0  0.05273  0.3924  0.20357  1.0000
  C   C1        1.0  0.19746  0.3499999999999999  0.16648000000000004  1.0000
  C   C2        1.0  0.22747  0.27041  0.23884000000000002  1.0000
  C   C3        1.0  0.14552  0.35259  0.20074000000000006  1.0000
  C   C4        1.0  0.13541  0.3131  0.2541800000000001  1.0000
  C   C5        1.0  0.17563  0.27306  0.2729800000000001  1.0000
  C   C6        1.0  0.23795  0.30959  0.18449  1.0000
  C   C7        1.0  0.10286  0.39646  0.18084000000000003  1.0000
  C   C8        1.0  0.69124  0.70787  0.35473  1.0000
  O   O3        1.0  0.33912  0.94638  0.5546  1.0000
  H   H1        1.0  0.20657  0.37953999999999993  0.125  1.0000
  H   H2        1.0  0.09637999999999998  0.31344  0.28227  1.0000
  H   H3        1.0  0.16622999999999996  0.24399  0.31485  1.0000
  H   H4        1.0  0.7317699999999999  0.70258  0.38154  1.0000
  H   H5        1.0  0.68488  0.67318  0.3171500000000001  1.0000
  H   H6        1.0  0.65821  0.70584  0.3954900000000001  1.0000
  H   H7        1.0  0.3542699999999999  0.90866  0.5593600000000001  1.0000
  H   H8        1.0  0.33315  0.04180999999999999  0.39636  1.0000
  O   O4        1.0  0.8824799999999999  0.56395  0.13933000000000004  1.0000
  O   O5        1.0  0.94727  0.6076  0.20357  1.0000
  C   C9        1.0  0.80254  0.65  0.16648000000000004  1.0000
  C   C10       1.0  0.77253  0.72959  0.23884000000000002  1.0000
  C   C11       1.0  0.85448  0.64741  0.20074000000000006  1.0000
  C   C12       1.0  0.86459  0.6868999999999998  0.2541800000000001  1.0000
  C   C13       1.0  0.82437  0.72694  0.2729800000000001  1.0000
  C   C14       1.0  0.76205  0.69041  0.18449  1.0000
  C   C15       1.0  0.8971399999999999  0.60354  0.18084000000000003  1.0000
  C   C16       1.0  0.30876  0.29213  0.35473  1.0000
  O   O6        1.0  0.66088  0.05362  0.5546  1.0000
  H   H9        1.0  0.79343  0.62046  0.125  1.0000
  H   H10       1.0  0.90362  0.6865599999999998  0.28227  1.0000
  H   H11       1.0  0.83377  0.75601  0.31485  1.0000
  H   H12       1.0  0.26823  0.29742  0.38154  1.0000
  H   H13       1.0  0.31512  0.32682  0.3171500000000001  1.0000
  H   H14       1.0  0.34179  0.29416  0.3954900000000001  1.0000
  H   H15       1.0  0.64573  0.09134  0.5593600000000001  1.0000
  H   H16       1.0  0.6668499999999999  0.9581899999999999  0.39636  1.0000
  O   O7        1.0  0.56395  0.11752  0.63933  1.0000
  O   O8        1.0  0.6076  0.05273  0.7035700000000001  1.0000
  C   C17       1.0  0.65  0.19746  0.66648  1.0000
  C   C18       1.0  0.72959  0.22747  0.73884  1.0000
  C   C19       1.0  0.64741  0.14552  0.70074  1.0000
  C   C20       1.0  0.6868999999999998  0.13541  0.75418  1.0000
  C   C21       1.0  0.72694  0.17563  0.7729800000000001  1.0000
  C   C22       1.0  0.69041  0.23795  0.68449  1.0000
  C   C23       1.0  0.60354  0.10286  0.6808400000000002  1.0000
  C   C24       1.0  0.29213  0.69124  0.8547300000000001  1.0000
  O   O9        1.0  0.05362  0.33912  0.05460000000000001  1.0000
  H   H17       1.0  0.62046  0.20657  0.6250000000000001  1.0000
  H   H18       1.0  0.6865599999999998  0.09637999999999998  0.7822700000000002  1.0000
  H   H19       1.0  0.75601  0.16622999999999996  0.8148500000000001  1.0000
  H   H20       1.0  0.29742  0.7317699999999999  0.8815400000000001  1.0000
  H   H21       1.0  0.32682  0.68488  0.81715  1.0000
  H   H22       1.0  0.29416  0.65821  0.8954900000000001  1.0000
  H   H23       1.0  0.09134  0.3542699999999999  0.05936000000000001  1.0000
  H   H24       1.0  0.9581899999999999  0.33315  0.89636  1.0000
  O   O10       1.0  0.43605  0.8824799999999999  0.63933  1.0000
  O   O11       1.0  0.3924  0.94727  0.7035700000000001  1.0000
  C   C25       1.0  0.3499999999999999  0.80254  0.66648  1.0000
  C   C26       1.0  0.27041  0.77253  0.73884  1.0000
  C   C27       1.0  0.35259  0.85448  0.70074  1.0000
  C   C28       1.0  0.3131  0.86459  0.75418  1.0000
  C   C29       1.0  0.27306  0.82437  0.7729800000000001  1.0000
  C   C30       1.0  0.30959  0.76205  0.68449  1.0000
  C   C31       1.0  0.39646  0.8971399999999999  0.6808400000000002  1.0000
  C   C32       1.0  0.70787  0.30876  0.8547300000000001  1.0000
  O   O12       1.0  0.94638  0.66088  0.05460000000000001  1.0000
  H   H25       1.0  0.37953999999999993  0.79343  0.6250000000000001  1.0000
  H   H26       1.0  0.31344  0.90362  0.7822700000000002  1.0000
  H   H27       1.0  0.24399  0.83377  0.8148500000000001  1.0000
  H   H28       1.0  0.70258  0.26823  0.8815400000000001  1.0000
  H   H29       1.0  0.67318  0.31512  0.81715  1.0000
  H   H30       1.0  0.70584  0.34179  0.8954900000000001  1.0000
  H   H31       1.0  0.90866  0.64573  0.05936000000000001  1.0000
  H   H32       1.0  0.04180999999999999  0.6668499999999999  0.89636  1.0000
  O   O13       1.0  0.8824799999999999  0.43605  0.8606700000000003  1.0000
  O   O14       1.0  0.94727  0.3924  0.79643  1.0000
  C   C33       1.0  0.80254  0.3499999999999999  0.8335200000000001  1.0000
  C   C34       1.0  0.77253  0.27041  0.7611600000000002  1.0000
  C   C35       1.0  0.85448  0.35259  0.7992600000000001  1.0000
  C   C36       1.0  0.86459  0.3131  0.7458200000000001  1.0000
  C   C37       1.0  0.82437  0.27306  0.72702  1.0000
  C   C38       1.0  0.76205  0.30959  0.8155100000000001  1.0000
  C   C39       1.0  0.8971399999999999  0.39646  0.81916  1.0000
  C   C40       1.0  0.30876  0.70787  0.64527  1.0000
  O   O15       1.0  0.66088  0.94638  0.4454000000000001  1.0000
  H   H33       1.0  0.79343  0.37953999999999993  0.875  1.0000
  H   H34       1.0  0.90362  0.31344  0.71773  1.0000
  H   H35       1.0  0.83377  0.24399  0.68515  1.0000
  H   H36       1.0  0.26823  0.70258  0.61846  1.0000
  H   H37       1.0  0.31512  0.67318  0.6828500000000002  1.0000
  H   H38       1.0  0.34179  0.70584  0.6045100000000001  1.0000
  H   H39       1.0  0.64573  0.90866  0.44064000000000003  1.0000
  H   H40       1.0  0.6668499999999999  0.04180999999999999  0.6036400000000001  1.0000
  O   O16       1.0  0.11752  0.56395  0.8606700000000003  1.0000
  O   O17       1.0  0.05273  0.6076  0.79643  1.0000
  C   C41       1.0  0.19746  0.65  0.8335200000000001  1.0000
  C   C42       1.0  0.22747  0.72959  0.7611600000000002  1.0000
  C   C43       1.0  0.14552  0.64741  0.7992600000000001  1.0000
  C   C44       1.0  0.13541  0.6868999999999998  0.7458200000000001  1.0000
  C   C45       1.0  0.17563  0.72694  0.72702  1.0000
  C   C46       1.0  0.23795  0.69041  0.8155100000000001  1.0000
  C   C47       1.0  0.10286  0.60354  0.81916  1.0000
  C   C48       1.0  0.69124  0.29213  0.64527  1.0000
  O   O18       1.0  0.33912  0.05362  0.4454000000000001  1.0000
  H   H41       1.0  0.20657  0.62046  0.875  1.0000
  H   H42       1.0  0.09637999999999998  0.6865599999999998  0.71773  1.0000
  H   H43       1.0  0.16622999999999996  0.75601  0.68515  1.0000
  H   H44       1.0  0.7317699999999999  0.29742  0.61846  1.0000
  H   H45       1.0  0.68488  0.32682  0.6828500000000002  1.0000
  H   H46       1.0  0.65821  0.29416  0.6045100000000001  1.0000
  H   H47       1.0  0.3542699999999999  0.09134  0.44064000000000003  1.0000
  H   H48       1.0  0.33315  0.9581899999999999  0.6036400000000001  1.0000
  O   O19       1.0  0.43605  0.11752  0.3606700000000001  1.0000
  O   O20       1.0  0.3924  0.05273  0.29643  1.0000
  C   C49       1.0  0.3499999999999999  0.19746  0.3335200000000001  1.0000
  C   C50       1.0  0.27041  0.22747  0.26116  1.0000
  C   C51       1.0  0.35259  0.14552  0.29926  1.0000
  C   C52       1.0  0.3131  0.13541  0.24582000000000007  1.0000
  C   C53       1.0  0.27306  0.17563  0.22702  1.0000
  C   C54       1.0  0.30959  0.23795  0.31551  1.0000
  C   C55       1.0  0.39646  0.10286  0.3191600000000001  1.0000
  C   C56       1.0  0.70787  0.69124  0.14527  1.0000
  O   O21       1.0  0.94638  0.33912  0.9454  1.0000
  H   H49       1.0  0.37953999999999993  0.20657  0.375  1.0000
  H   H50       1.0  0.31344  0.09637999999999998  0.21773  1.0000
  H   H51       1.0  0.24399  0.16622999999999996  0.18515  1.0000
  H   H52       1.0  0.70258  0.7317699999999999  0.11846000000000002  1.0000
  H   H53       1.0  0.67318  0.68488  0.18285  1.0000
  H   H54       1.0  0.70584  0.65821  0.10451  1.0000
  H   H55       1.0  0.90866  0.3542699999999999  0.94064  1.0000
  H   H56       1.0  0.04180999999999999  0.33315  0.10364  1.0000
  O   O22       1.0  0.56395  0.8824799999999999  0.3606700000000001  1.0000
  O   O23       1.0  0.6076  0.94727  0.29643  1.0000
  C   C57       1.0  0.65  0.80254  0.3335200000000001  1.0000
  C   C58       1.0  0.72959  0.77253  0.26116  1.0000
  C   C59       1.0  0.64741  0.85448  0.29926  1.0000
  C   C60       1.0  0.6868999999999998  0.86459  0.24582000000000007  1.0000
  C   C61       1.0  0.72694  0.82437  0.22702  1.0000
  C   C62       1.0  0.69041  0.76205  0.31551  1.0000
  C   C63       1.0  0.60354  0.8971399999999999  0.3191600000000001  1.0000
  C   C64       1.0  0.29213  0.30876  0.14527  1.0000
  O   O24       1.0  0.05362  0.66088  0.9454  1.0000
  H   H57       1.0  0.62046  0.79343  0.375  1.0000
  H   H58       1.0  0.6865599999999998  0.90362  0.21773  1.0000
  H   H59       1.0  0.75601  0.83377  0.18515  1.0000
  H   H60       1.0  0.29742  0.26823  0.11846000000000002  1.0000
  H   H61       1.0  0.32682  0.31512  0.18285  1.0000
  H   H62       1.0  0.29416  0.34179  0.10451  1.0000
  H   H63       1.0  0.09134  0.64573  0.94064  1.0000
  H   H64       1.0  0.9581899999999999  0.6668499999999999  0.10364  1.0000
  O   O25       1.0  0.8824799999999999  0.56395  0.8606700000000003  1.0000
  O   O26       1.0  0.94727  0.6076  0.79643  1.0000
  C   C65       1.0  0.80254  0.65  0.8335200000000001  1.0000
  C   C66       1.0  0.77253  0.72959  0.7611600000000002  1.0000
  C   C67       1.0  0.85448  0.64741  0.7992600000000001  1.0000
  C   C68       1.0  0.86459  0.6868999999999998  0.7458200000000001  1.0000
  C   C69       1.0  0.82437  0.72694  0.72702  1.0000
  C   C70       1.0  0.76205  0.69041  0.8155100000000001  1.0000
  C   C71       1.0  0.8971399999999999  0.60354  0.81916  1.0000
  C   C72       1.0  0.30876  0.29213  0.64527  1.0000
  O   O27       1.0  0.66088  0.05362  0.4454000000000001  1.0000
  H   H65       1.0  0.79343  0.62046  0.875  1.0000
  H   H66       1.0  0.90362  0.6865599999999998  0.71773  1.0000
  H   H67       1.0  0.83377  0.75601  0.68515  1.0000
  H   H68       1.0  0.26823  0.29742  0.61846  1.0000
  H   H69       1.0  0.31512  0.32682  0.6828500000000002  1.0000
  H   H70       1.0  0.34179  0.29416  0.6045100000000001  1.0000
  H   H71       1.0  0.64573  0.09134  0.44064000000000003  1.0000
  H   H72       1.0  0.6668499999999999  0.9581899999999999  0.6036400000000001  1.0000
  O   O28       1.0  0.11752  0.43605  0.8606700000000003  1.0000
  O   O29       1.0  0.05273  0.3924  0.79643  1.0000
  C   C73       1.0  0.19746  0.3499999999999999  0.8335200000000001  1.0000
  C   C74       1.0  0.22747  0.27041  0.7611600000000002  1.0000
  C   C75       1.0  0.14552  0.35259  0.7992600000000001  1.0000
  C   C76       1.0  0.13541  0.3131  0.7458200000000001  1.0000
  C   C77       1.0  0.17563  0.27306  0.72702  1.0000
  C   C78       1.0  0.23795  0.30959  0.8155100000000001  1.0000
  C   C79       1.0  0.10286  0.39646  0.81916  1.0000
  C   C80       1.0  0.69124  0.70787  0.64527  1.0000
  O   O30       1.0  0.33912  0.94638  0.4454000000000001  1.0000
  H   H73       1.0  0.20657  0.37953999999999993  0.875  1.0000
  H   H74       1.0  0.09637999999999998  0.31344  0.71773  1.0000
  H   H75       1.0  0.16622999999999996  0.24399  0.68515  1.0000
  H   H76       1.0  0.7317699999999999  0.70258  0.61846  1.0000
  H   H77       1.0  0.68488  0.67318  0.6828500000000002  1.0000
  H   H78       1.0  0.65821  0.70584  0.6045100000000001  1.0000
  H   H79       1.0  0.3542699999999999  0.90866  0.44064000000000003  1.0000
  H   H80       1.0  0.33315  0.04180999999999999  0.6036400000000001  1.0000
  O   O31       1.0  0.43605  0.8824799999999999  0.3606700000000001  1.0000
  O   O32       1.0  0.3924  0.94727  0.29643  1.0000
  C   C81       1.0  0.3499999999999999  0.80254  0.3335200000000001  1.0000
  C   C82       1.0  0.27041  0.77253  0.26116  1.0000
  C   C83       1.0  0.35259  0.85448  0.29926  1.0000
  C   C84       1.0  0.3131  0.86459  0.24582000000000007  1.0000
  C   C85       1.0  0.27306  0.82437  0.22702  1.0000
  C   C86       1.0  0.30959  0.76205  0.31551  1.0000
  C   C87       1.0  0.39646  0.8971399999999999  0.3191600000000001  1.0000
  C   C88       1.0  0.70787  0.30876  0.14527  1.0000
  O   O33       1.0  0.94638  0.66088  0.9454  1.0000
  H   H81       1.0  0.37953999999999993  0.79343  0.375  1.0000
  H   H82       1.0  0.31344  0.90362  0.21773  1.0000
  H   H83       1.0  0.24399  0.83377  0.18515  1.0000
  H   H84       1.0  0.70258  0.26823  0.11846000000000002  1.0000
  H   H85       1.0  0.67318  0.31512  0.18285  1.0000
  H   H86       1.0  0.70584  0.34179  0.10451  1.0000
  H   H87       1.0  0.90866  0.64573  0.94064  1.0000
  H   H88       1.0  0.04180999999999999  0.6668499999999999  0.10364  1.0000
  O   O34       1.0  0.56395  0.11752  0.3606700000000001  1.0000
  O   O35       1.0  0.6076  0.05273  0.29643  1.0000
  C   C89       1.0  0.65  0.19746  0.3335200000000001  1.0000
  C   C90       1.0  0.72959  0.22747  0.26116  1.0000
  C   C91       1.0  0.64741  0.14552  0.29926  1.0000
  C   C92       1.0  0.6868999999999998  0.13541  0.24582000000000007  1.0000
  C   C93       1.0  0.72694  0.17563  0.22702  1.0000
  C   C94       1.0  0.69041  0.23795  0.31551  1.0000
  C   C95       1.0  0.60354  0.10286  0.3191600000000001  1.0000
  C   C96       1.0  0.29213  0.69124  0.14527  1.0000
  O   O36       1.0  0.05362  0.33912  0.9454  1.0000
  H   H89       1.0  0.62046  0.20657  0.375  1.0000
  H   H90       1.0  0.6865599999999998  0.09637999999999998  0.21773  1.0000
  H   H91       1.0  0.75601  0.16622999999999996  0.18515  1.0000
  H   H92       1.0  0.29742  0.7317699999999999  0.11846000000000002  1.0000
  H   H93       1.0  0.32682  0.68488  0.18285  1.0000
  H   H94       1.0  0.29416  0.65821  0.10451  1.0000
  H   H95       1.0  0.09134  0.3542699999999999  0.94064  1.0000
  H   H96       1.0  0.9581899999999999  0.33315  0.10364  1.0000
  O   O37       1.0  0.11752  0.56395  0.13933000000000004  1.0000
  O   O38       1.0  0.05273  0.6076  0.20357  1.0000
  C   C97       1.0  0.19746  0.65  0.16648000000000004  1.0000
  C   C98       1.0  0.22747  0.72959  0.23884000000000002  1.0000
  C   C99       1.0  0.14552  0.64741  0.20074000000000006  1.0000
  C   C100      1.0  0.13541  0.6868999999999998  0.2541800000000001  1.0000
  C   C101      1.0  0.17563  0.72694  0.2729800000000001  1.0000
  C   C102      1.0  0.23795  0.69041  0.18449  1.0000
  C   C103      1.0  0.10286  0.60354  0.18084000000000003  1.0000
  C   C104      1.0  0.69124  0.29213  0.35473  1.0000
  O   O39       1.0  0.33912  0.05362  0.5546  1.0000
  H   H97       1.0  0.20657  0.62046  0.125  1.0000
  H   H98       1.0  0.09637999999999998  0.6865599999999998  0.28227  1.0000
  H   H99       1.0  0.16622999999999996  0.75601  0.31485  1.0000
  H   H100      1.0  0.7317699999999999  0.29742  0.38154  1.0000
  H   H101      1.0  0.68488  0.32682  0.3171500000000001  1.0000
  H   H102      1.0  0.65821  0.29416  0.3954900000000001  1.0000
  H   H103      1.0  0.3542699999999999  0.09134  0.5593600000000001  1.0000
  H   H104      1.0  0.33315  0.9581899999999999  0.39636  1.0000
  O   O40       1.0  0.8824799999999999  0.43605  0.13933000000000004  1.0000
  O   O41       1.0  0.94727  0.3924  0.20357  1.0000
  C   C105      1.0  0.80254  0.3499999999999999  0.16648000000000004  1.0000
  C   C106      1.0  0.77253  0.27041  0.23884000000000002  1.0000
  C   C107      1.0  0.85448  0.35259  0.20074000000000006  1.0000
  C   C108      1.0  0.86459  0.3131  0.2541800000000001  1.0000
  C   C109      1.0  0.82437  0.27306  0.2729800000000001  1.0000
  C   C110      1.0  0.76205  0.30959  0.18449  1.0000
  C   C111      1.0  0.8971399999999999  0.39646  0.18084000000000003  1.0000
  C   C112      1.0  0.30876  0.70787  0.35473  1.0000
  O   O42       1.0  0.66088  0.94638  0.5546  1.0000
  H   H105      1.0  0.79343  0.37953999999999993  0.125  1.0000
  H   H106      1.0  0.90362  0.31344  0.28227  1.0000
  H   H107      1.0  0.83377  0.24399  0.31485  1.0000
  H   H108      1.0  0.26823  0.70258  0.38154  1.0000
  H   H109      1.0  0.31512  0.67318  0.3171500000000001  1.0000
  H   H110      1.0  0.34179  0.70584  0.3954900000000001  1.0000
  H   H111      1.0  0.64573  0.90866  0.5593600000000001  1.0000
  H   H112      1.0  0.6668499999999999  0.04180999999999999  0.39636  1.0000
  O   O43       1.0  0.56395  0.8824799999999999  0.63933  1.0000
  O   O44       1.0  0.6076  0.94727  0.7035700000000001  1.0000
  C   C113      1.0  0.65  0.80254  0.66648  1.0000
  C   C114      1.0  0.72959  0.77253  0.73884  1.0000
  C   C115      1.0  0.64741  0.85448  0.70074  1.0000
  C   C116      1.0  0.6868999999999998  0.86459  0.75418  1.0000
  C   C117      1.0  0.72694  0.82437  0.7729800000000001  1.0000
  C   C118      1.0  0.69041  0.76205  0.68449  1.0000
  C   C119      1.0  0.60354  0.8971399999999999  0.6808400000000002  1.0000
  C   C120      1.0  0.29213  0.30876  0.8547300000000001  1.0000
  O   O45       1.0  0.05362  0.66088  0.05460000000000001  1.0000
  H   H113      1.0  0.62046  0.79343  0.6250000000000001  1.0000
  H   H114      1.0  0.6865599999999998  0.90362  0.7822700000000002  1.0000
  H   H115      1.0  0.75601  0.83377  0.8148500000000001  1.0000
  H   H116      1.0  0.29742  0.26823  0.8815400000000001  1.0000
  H   H117      1.0  0.32682  0.31512  0.81715  1.0000
  H   H118      1.0  0.29416  0.34179  0.8954900000000001  1.0000
  H   H119      1.0  0.09134  0.64573  0.05936000000000001  1.0000
  H   H120      1.0  0.9581899999999999  0.6668499999999999  0.89636  1.0000
  O   O46       1.0  0.43605  0.11752  0.63933  1.0000
  O   O47       1.0  0.3924  0.05273  0.7035700000000001  1.0000
  C   C121      1.0  0.3499999999999999  0.19746  0.66648  1.0000
  C   C122      1.0  0.27041  0.22747  0.73884  1.0000
  C   C123      1.0  0.35259  0.14552  0.70074  1.0000
  C   C124      1.0  0.3131  0.13541  0.75418  1.0000
  C   C125      1.0  0.27306  0.17563  0.7729800000000001  1.0000
  C   C126      1.0  0.30959  0.23795  0.68449  1.0000
  C   C127      1.0  0.39646  0.10286  0.6808400000000002  1.0000
  C   C128      1.0  0.70787  0.69124  0.8547300000000001  1.0000
  O   O48       1.0  0.94638  0.33912  0.05460000000000001  1.0000
  H   H121      1.0  0.37953999999999993  0.20657  0.6250000000000001  1.0000
  H   H122      1.0  0.31344  0.09637999999999998  0.7822700000000002  1.0000
  H   H123      1.0  0.24399  0.16622999999999996  0.8148500000000001  1.0000
  H   H124      1.0  0.70258  0.7317699999999999  0.8815400000000001  1.0000
  H   H125      1.0  0.67318  0.68488  0.81715  1.0000
  H   H126      1.0  0.70584  0.65821  0.8954900000000001  1.0000
  H   H127      1.0  0.90866  0.3542699999999999  0.05936000000000001  1.0000
  H   H128      1.0  0.04180999999999999  0.33315  0.89636  1.0000
  Zr  Zr1       1.0  0.07034  0.5  0.09096  1.0000
  O   O49       1.0  0.04964  0.5  0.20074000000000006  1.0000
  Zr  Zr2       1.0  0.9296599999999999  0.5  0.09096  1.0000
  O   O50       1.0  0.9503599999999999  0.5  0.20074000000000006  1.0000
  Zr  Zr3       1.0  0.5  0.07034  0.59096  1.0000
  O   O51       1.0  0.5  0.04964  0.70074  1.0000
  Zr  Zr4       1.0  0.5  0.9296599999999999  0.59096  1.0000
  O   O52       1.0  0.5  0.9503599999999999  0.70074  1.0000
  Zr  Zr5       1.0  0.9296599999999999  0.5  0.90904  1.0000
  O   O53       1.0  0.9503599999999999  0.5  0.7992600000000001  1.0000
  Zr  Zr6       1.0  0.07034  0.5  0.90904  1.0000
  O   O54       1.0  0.04964  0.5  0.7992600000000001  1.0000
  Zr  Zr7       1.0  0.5  0.07034  0.40904  1.0000
  O   O55       1.0  0.5  0.04964  0.29926  1.0000
  Zr  Zr8       1.0  0.5  0.9296599999999999  0.40904  1.0000
  O   O56       1.0  0.5  0.9503599999999999  0.29926  1.0000
  Zr  Zr9       1.0  0.0  0.39585  0.0  1.0000
  Zr  Zr10      1.0  0.0  0.60415  0.0  1.0000
  Zr  Zr11      1.0  0.60415  0.0  0.5  1.0000
  Zr  Zr12      1.0  0.39585  0.0  0.5  1.0000
  O   O57       1.0  0.0  0.4478  0.10134  1.0000
  O   O58       1.0  0.0  0.5522  0.10134  1.0000
  O   O59       1.0  0.5522  0.0  0.60134  1.0000
  O   O60       1.0  0.4478  0.0  0.60134  1.0000
  O   O61       1.0  0.0  0.4478  0.89866  1.0000
  O   O62       1.0  0.0  0.5522  0.89866  1.0000
  O   O63       1.0  0.4478  0.0  0.39866  1.0000
  O   O64       1.0  0.5522  0.0  0.39866  1.0000
  O   O65       1.0  0.06945  0.44856999999999997  0.0  1.0000
  O   O66       1.0  0.93055  0.55143  0.0  1.0000
  O   O67       1.0  0.55143  0.06945  0.5  1.0000
  O   O68       1.0  0.44856999999999997  0.93055  0.5  1.0000
  O   O69       1.0  0.93055  0.44856999999999997  0.0  1.0000
  O   O70       1.0  0.06945  0.55143  0.0  1.0000
  O   O71       1.0  0.44856999999999997  0.06945  0.5  1.0000
  O   O72       1.0  0.55143  0.93055  0.5  1.0000
  H   H129      1.0  0.42657  0.10364000000000001  0.5  1.0000
  H   H130      1.0  0.57343  0.89636  0.5  1.0000
  H   H131      1.0  0.89636  0.42657  0.0  1.0000
  H   H132      1.0  0.10364000000000001  0.57343  0.0  1.0000
  H   H133      1.0  0.57343  0.10364000000000001  0.5  1.0000
  H   H134      1.0  0.42657  0.89636  0.5  1.0000
  H   H135      1.0  0.10364000000000001  0.42657  0.0  1.0000
  H   H136      1.0  0.89636  0.57343  0.0  1.0000
  Co  Co1       1.0  0.0  0.44396  0.20248000000000005  1.0000
  Co  Co2       1.0  0.0  0.55604  0.20248000000000005  1.0000
  Co  Co3       1.0  0.55604  0.0  0.70248  1.0000
  Co  Co4       1.0  0.44396  0.0  0.70248  1.0000
  Co  Co5       1.0  0.0  0.44396  0.79752  1.0000
  Co  Co6       1.0  0.0  0.55604  0.79752  1.0000
  Co  Co7       1.0  0.44396  0.0  0.29752  1.0000
  Co  Co8       1.0  0.55604  0.0  0.29752  1.0000
  N   N1        1.0  0.04792  0.43191  0.42193  1.0000
  C   C129      1.0  0.04868999999999999  0.43607000000000007  0.3485  1.0000
  H   H137      1.0  0.08817  0.4366999999999999  0.32177  1.0000
  N   N2        1.0  0.95208  0.56809  0.42193  1.0000
  C   C130      1.0  0.95131  0.56393  0.3485  1.0000
  H   H138      1.0  0.91183  0.5633  0.32177  1.0000
  N   N3        1.0  0.56809  0.04792  0.92193  1.0000
  C   C131      1.0  0.56393  0.04868999999999999  0.8485000000000001  1.0000
  H   H139      1.0  0.5633  0.08817  0.82177  1.0000
  N   N4        1.0  0.43191  0.95208  0.92193  1.0000
  C   C132      1.0  0.43607000000000007  0.95131  0.8485000000000001  1.0000
  H   H140      1.0  0.4366999999999999  0.91183  0.82177  1.0000
  N   N5        1.0  0.95208  0.43191  0.5780700000000001  1.0000
  C   C133      1.0  0.95131  0.43607000000000007  0.6515000000000001  1.0000
  H   H141      1.0  0.91183  0.4366999999999999  0.67823  1.0000
  N   N6        1.0  0.04792  0.56809  0.5780700000000001  1.0000
  C   C134      1.0  0.04868999999999999  0.56393  0.6515000000000001  1.0000
  H   H142      1.0  0.08817  0.5633  0.67823  1.0000
  N   N7        1.0  0.43191  0.04792  0.07807000000000001  1.0000
  C   C135      1.0  0.43607000000000007  0.04868999999999999  0.1515  1.0000
  H   H143      1.0  0.4366999999999999  0.08817  0.17823000000000003  1.0000
  N   N8        1.0  0.56809  0.95208  0.07807000000000001  1.0000
  C   C136      1.0  0.56393  0.95131  0.1515  1.0000
  H   H144      1.0  0.5633  0.91183  0.17823000000000003  1.0000
  N   N9        1.0  0.95208  0.56809  0.5780700000000001  1.0000
  C   C137      1.0  0.95131  0.56393  0.6515000000000001  1.0000
  H   H145      1.0  0.91183  0.5633  0.67823  1.0000
  N   N10       1.0  0.04792  0.43191  0.5780700000000001  1.0000
  C   C138      1.0  0.04868999999999999  0.43607000000000007  0.6515000000000001  1.0000
  H   H146      1.0  0.08817  0.4366999999999999  0.67823  1.0000
  N   N11       1.0  0.43191  0.95208  0.07807000000000001  1.0000
  C   C139      1.0  0.43607000000000007  0.95131  0.1515  1.0000
  H   H147      1.0  0.4366999999999999  0.91183  0.17823000000000003  1.0000
  N   N12       1.0  0.56809  0.04792  0.07807000000000001  1.0000
  C   C140      1.0  0.56393  0.04868999999999999  0.1515  1.0000
  H   H148      1.0  0.5633  0.08817  0.17823000000000003  1.0000
  N   N13       1.0  0.04792  0.56809  0.42193  1.0000
  C   C141      1.0  0.04868999999999999  0.56393  0.3485  1.0000
  H   H149      1.0  0.08817  0.5633  0.32177  1.0000
  N   N14       1.0  0.95208  0.43191  0.42193  1.0000
  C   C142      1.0  0.95131  0.43607000000000007  0.3485  1.0000
  H   H150      1.0  0.91183  0.4366999999999999  0.32177  1.0000
  N   N15       1.0  0.56809  0.95208  0.92193  1.0000
  C   C143      1.0  0.56393  0.95131  0.8485000000000001  1.0000
  H   H151      1.0  0.5633  0.91183  0.82177  1.0000
  N   N16       1.0  0.43191  0.04792  0.92193  1.0000
  C   C144      1.0  0.43607000000000007  0.04868999999999999  0.8485000000000001  1.0000
  H   H152      1.0  0.4366999999999999  0.08817  0.82177  1.0000
  N   N17       1.0  0.0  0.44042999999999993  0.30911  1.0000
  C   C145      1.0  0.0  0.43186  0.4588200000000001  1.0000
  N   N18       1.0  0.0  0.55957  0.30911  1.0000
  C   C146      1.0  0.0  0.56814  0.4588200000000001  1.0000
  N   N19       1.0  0.55957  0.0  0.80911  1.0000
  C   C147      1.0  0.56814  0.0  0.95882  1.0000
  N   N20       1.0  0.44042999999999993  0.0  0.80911  1.0000
  C   C148      1.0  0.43186  0.0  0.95882  1.0000
  N   N21       1.0  0.0  0.44042999999999993  0.6908900000000001  1.0000
  C   C149      1.0  0.0  0.43186  0.54118  1.0000
  N   N22       1.0  0.0  0.55957  0.6908900000000001  1.0000
  C   C150      1.0  0.0  0.56814  0.54118  1.0000
  N   N23       1.0  0.44042999999999993  0.0  0.19089  1.0000
  C   C151      1.0  0.43186  0.0  0.04118  1.0000
  N   N24       1.0  0.55957  0.0  0.19089  1.0000
  C   C152      1.0  0.56814  0.0  0.04118  1.0000
  Cu  Cu1       1.0  0.10175  0.42340000000000005  0.5  0.1400
  I   I1        1.0  0.14669  0.32456  0.5  0.1000
  Cu  Cu2       1.0  0.89825  0.5766  0.5  0.1400
  I   I2        1.0  0.85331  0.67544  0.5  0.1000
  Cu  Cu3       1.0  0.5766  0.10175  0.0  0.1400
  I   I3        1.0  0.67544  0.14669  0.0  0.1000
  Cu  Cu4       1.0  0.42340000000000005  0.89825  0.0  0.1400
  I   I4        1.0  0.32456  0.85331  0.0  0.1000
  Cu  Cu5       1.0  0.89825  0.42340000000000005  0.5  0.1400
  I   I5        1.0  0.85331  0.32456  0.5  0.1000
  Cu  Cu6       1.0  0.10175  0.5766  0.5  0.1400
  I   I6        1.0  0.14669  0.67544  0.5  0.1000
  Cu  Cu7       1.0  0.42340000000000005  0.10175  0.0  0.1400
  I   I7        1.0  0.32456  0.14669  0.0  0.1000
  Cu  Cu8       1.0  0.5766  0.89825  0.0  0.1400
  I   I8        1.0  0.67544  0.85331  0.0  0.1000
  I   I9        1.0  0.17587  0.5  0.5  0.1000
  I   I10       1.0  0.82413  0.5  0.5  0.1000
  I   I11       1.0  0.5  0.17587  0.0  0.1000
  I   I12       1.0  0.5  0.82413  0.0  0.1000
  O   O73       1.0  0.15504  0.5  0.06064  1.0000
  C   C153      1.0  0.27212  0.5  0.93605  1.0000
  C   C154      1.0  0.33025  0.5  0.9361300000000001  1.0000
  O   O74       1.0  0.84496  0.5  0.06064  1.0000
  C   C155      1.0  0.72788  0.5  0.93605  1.0000
  C   C156      1.0  0.66975  0.5  0.9361300000000001  1.0000
  O   O75       1.0  0.5  0.15504  0.5606400000000002  1.0000
  C   C157      1.0  0.5  0.27212  0.43605  1.0000
  C   C158      1.0  0.5  0.33025  0.43613000000000013  1.0000
  O   O76       1.0  0.5  0.84496  0.5606400000000002  1.0000
  C   C159      1.0  0.5  0.72788  0.43605  1.0000
  C   C160      1.0  0.5  0.66975  0.43613000000000013  1.0000
  O   O77       1.0  0.84496  0.5  0.9393600000000001  1.0000
  C   C161      1.0  0.72788  0.5  0.06395  1.0000
  C   C162      1.0  0.66975  0.5  0.06387  1.0000
  O   O78       1.0  0.15504  0.5  0.9393600000000001  1.0000
  C   C163      1.0  0.27212  0.5  0.06395  1.0000
  C   C164      1.0  0.33025  0.5  0.06387  1.0000
  O   O79       1.0  0.5  0.15504  0.43936  1.0000
  C   C165      1.0  0.5  0.27212  0.56395  1.0000
  C   C166      1.0  0.5  0.33025  0.56387  1.0000
  O   O80       1.0  0.5  0.84496  0.43936  1.0000
  C   C167      1.0  0.5  0.72788  0.56395  1.0000
  C   C168      1.0  0.5  0.66975  0.56387  1.0000
  C   C169      1.0  0.18005999999999997  0.5  0.0  1.0000
  C   C170      1.0  0.24207  0.5  0.0  1.0000
  C   C171      1.0  0.35976  0.5  0.0  1.0000
  C   C172      1.0  0.47042  0.5  0.0  1.0000
  C   C173      1.0  0.42008  0.5  0.0  1.0000
  C   C174      1.0  0.81994  0.5  0.0  1.0000
  C   C175      1.0  0.75793  0.5  0.0  1.0000
  C   C176      1.0  0.64024  0.5  0.0  1.0000
  C   C177      1.0  0.52958  0.5  0.0  1.0000
  C   C178      1.0  0.57992  0.5  0.0  1.0000
  C   C179      1.0  0.5  0.18005999999999997  0.5  1.0000
  C   C180      1.0  0.5  0.24207  0.5  1.0000
  C   C181      1.0  0.5  0.35976  0.5  1.0000
  C   C182      1.0  0.5  0.47042  0.5  1.0000
  C   C183      1.0  0.5  0.42008  0.5  1.0000
  C   C184      1.0  0.5  0.81994  0.5  1.0000
  C   C185      1.0  0.5  0.75793  0.5  1.0000
  C   C186      1.0  0.5  0.64024  0.5  1.0000
  C   C187      1.0  0.5  0.52958  0.5  1.0000
  C   C188      1.0  0.5  0.57992  0.5  1.0000
  H   H153      1.0  0.5  0.6478  0.6138  1.0000
  H   H154      1.0  0.5  0.74926  0.6142700000000002  1.0000
  H   H155      1.0  0.5  0.3522  0.6138  1.0000
  H   H156      1.0  0.5  0.25074  0.6142700000000002  1.0000
  H   H157      1.0  0.3522  0.5  0.1138  1.0000
  H   H158      1.0  0.25074  0.5  0.11427000000000001  1.0000
  H   H159      1.0  0.6478  0.5  0.1138  1.0000
  H   H160      1.0  0.74926  0.5  0.11427000000000001  1.0000
  H   H161      1.0  0.5  0.6478  0.3862  1.0000
  H   H162      1.0  0.5  0.74926  0.38573  1.0000
  H   H163      1.0  0.5  0.3522  0.3862  1.0000
  H   H164      1.0  0.5  0.25074  0.38573  1.0000
  H   H165      1.0  0.6478  0.5  0.8862000000000001  1.0000
  H   H166      1.0  0.74926  0.5  0.8857300000000001  1.0000
  H   H167      1.0  0.3522  0.5  0.8862000000000001  1.0000
  H   H168      1.0  0.25074  0.5  0.8857300000000001  1.0000
