data_merged
_symmetry_space_group_name_H-M    'P1'
_cell_length_a                                                    24.1696
_cell_length_b                                                    24.1696
_cell_length_c                                                    18.9154
_cell_angle_alpha                                              90.0000
_cell_angle_beta                                                90.0000
_cell_angle_gamma                                           90.0000
loop_
_atom_site_type_symbol
_atom_site_fract_x
_atom_site_fract_y
_atom_site_fract_z
_atom_site_occupancy
O 0.11752 0.43605 0.13933 1.00
O 0.05273 0.39240 0.20357 1.00
C 0.19746 0.35000 0.16648 1.00
C 0.22747 0.27041 0.23884 1.00
C 0.14552 0.35259 0.20074 1.00
C 0.13541 0.31310 0.25418 1.00
C 0.17563 0.27306 0.27298 1.00
C 0.23795 0.30959 0.18449 1.00
C 0.10286 0.39646 0.18084 1.00
C 0.69124 0.70787 0.35473 1.00
O 0.33912 0.94638 0.55460 1.00
H 0.20657 0.37954 0.12500 1.00
H 0.09638 0.31344 0.28227 1.00
H 0.16623 0.24399 0.31485 1.00
H 0.73177 0.70258 0.38154 1.00
H 0.68488 0.67318 0.31715 1.00
H 0.65821 0.70584 0.39549 1.00
H 0.35427 0.90866 0.55936 1.00
H 0.33315 0.04181 0.39636 1.00
O 0.88248 0.56395 0.13933 1.00
O 0.94727 0.60760 0.20357 1.00
C 0.80254 0.65000 0.16648 1.00
C 0.77253 0.72959 0.23884 1.00
C 0.85448 0.64741 0.20074 1.00
C 0.86459 0.68690 0.25418 1.00
C 0.82437 0.72694 0.27298 1.00
C 0.76205 0.69041 0.18449 1.00
C 0.89714 0.60354 0.18084 1.00
C 0.30876 0.29213 0.35473 1.00
O 0.66088 0.05362 0.55460 1.00
H 0.79343 0.62046 0.12500 1.00
H 0.90362 0.68656 0.28227 1.00
H 0.83377 0.75601 0.31485 1.00
H 0.26823 0.29742 0.38154 1.00
H 0.31512 0.32682 0.31715 1.00
H 0.34179 0.29416 0.39549 1.00
H 0.64573 0.09134 0.55936 1.00
H 0.66685 0.95819 0.39636 1.00
O 0.56395 0.11752 0.63933 1.00
O 0.60760 0.05273 0.70357 1.00
C 0.65000 0.19746 0.66648 1.00
C 0.72959 0.22747 0.73884 1.00
C 0.64741 0.14552 0.70074 1.00
C 0.68690 0.13541 0.75418 1.00
C 0.72694 0.17563 0.77298 1.00
C 0.69041 0.23795 0.68449 1.00
C 0.60354 0.10286 0.68084 1.00
C 0.29213 0.69124 0.85473 1.00
O 0.05362 0.33912 0.05460 1.00
H 0.62046 0.20657 0.62500 1.00
H 0.68656 0.09638 0.78227 1.00
H 0.75601 0.16623 0.81485 1.00
H 0.29742 0.73177 0.88154 1.00
H 0.32682 0.68488 0.81715 1.00
H 0.29416 0.65821 0.89549 1.00
H 0.09134 0.35427 0.05936 1.00
H 0.95819 0.33315 0.89636 1.00
O 0.43605 0.88248 0.63933 1.00
O 0.39240 0.94727 0.70357 1.00
C 0.35000 0.80254 0.66648 1.00
C 0.27041 0.77253 0.73884 1.00
C 0.35259 0.85448 0.70074 1.00
C 0.31310 0.86459 0.75418 1.00
C 0.27306 0.82437 0.77298 1.00
C 0.30959 0.76205 0.68449 1.00
C 0.39646 0.89714 0.68084 1.00
C 0.70787 0.30876 0.85473 1.00
O 0.94638 0.66088 0.05460 1.00
H 0.37954 0.79343 0.62500 1.00
H 0.31344 0.90362 0.78227 1.00
H 0.24399 0.83377 0.81485 1.00
H 0.70258 0.26823 0.88154 1.00
H 0.67318 0.31512 0.81715 1.00
H 0.70584 0.34179 0.89549 1.00
H 0.90866 0.64573 0.05936 1.00
H 0.04181 0.66685 0.89636 1.00
O 0.88248 0.43605 0.86067 1.00
O 0.94727 0.39240 0.79643 1.00
C 0.80254 0.35000 0.83352 1.00
C 0.77253 0.27041 0.76116 1.00
C 0.85448 0.35259 0.79926 1.00
C 0.86459 0.31310 0.74582 1.00
C 0.82437 0.27306 0.72702 1.00
C 0.76205 0.30959 0.81551 1.00
C 0.89714 0.39646 0.81916 1.00
C 0.30876 0.70787 0.64527 1.00
O 0.66088 0.94638 0.44540 1.00
H 0.79343 0.37954 0.87500 1.00
H 0.90362 0.31344 0.71773 1.00
H 0.83377 0.24399 0.68515 1.00
H 0.26823 0.70258 0.61846 1.00
H 0.31512 0.67318 0.68285 1.00
H 0.34179 0.70584 0.60451 1.00
H 0.64573 0.90866 0.44064 1.00
H 0.66685 0.04181 0.60364 1.00
O 0.11752 0.56395 0.86067 1.00
O 0.05273 0.60760 0.79643 1.00
C 0.19746 0.65000 0.83352 1.00
C 0.22747 0.72959 0.76116 1.00
C 0.14552 0.64741 0.79926 1.00
C 0.13541 0.68690 0.74582 1.00
C 0.17563 0.72694 0.72702 1.00
C 0.23795 0.69041 0.81551 1.00
C 0.10286 0.60354 0.81916 1.00
C 0.69124 0.29213 0.64527 1.00
O 0.33912 0.05362 0.44540 1.00
H 0.20657 0.62046 0.87500 1.00
H 0.09638 0.68656 0.71773 1.00
H 0.16623 0.75601 0.68515 1.00
H 0.73177 0.29742 0.61846 1.00
H 0.68488 0.32682 0.68285 1.00
H 0.65821 0.29416 0.60451 1.00
H 0.35427 0.09134 0.44064 1.00
H 0.33315 0.95819 0.60364 1.00
O 0.43605 0.11752 0.36067 1.00
O 0.39240 0.05273 0.29643 1.00
C 0.35000 0.19746 0.33352 1.00
C 0.27041 0.22747 0.26116 1.00
C 0.35259 0.14552 0.29926 1.00
C 0.31310 0.13541 0.24582 1.00
C 0.27306 0.17563 0.22702 1.00
C 0.30959 0.23795 0.31551 1.00
C 0.39646 0.10286 0.31916 1.00
C 0.70787 0.69124 0.14527 1.00
O 0.94638 0.33912 0.94540 1.00
H 0.37954 0.20657 0.37500 1.00
H 0.31344 0.09638 0.21773 1.00
H 0.24399 0.16623 0.18515 1.00
H 0.70258 0.73177 0.11846 1.00
H 0.67318 0.68488 0.18285 1.00
H 0.70584 0.65821 0.10451 1.00
H 0.90866 0.35427 0.94064 1.00
H 0.04181 0.33315 0.10364 1.00
O 0.56395 0.88248 0.36067 1.00
O 0.60760 0.94727 0.29643 1.00
C 0.65000 0.80254 0.33352 1.00
C 0.72959 0.77253 0.26116 1.00
C 0.64741 0.85448 0.29926 1.00
C 0.68690 0.86459 0.24582 1.00
C 0.72694 0.82437 0.22702 1.00
C 0.69041 0.76205 0.31551 1.00
C 0.60354 0.89714 0.31916 1.00
C 0.29213 0.30876 0.14527 1.00
O 0.05362 0.66088 0.94540 1.00
H 0.62046 0.79343 0.37500 1.00
H 0.68656 0.90362 0.21773 1.00
H 0.75601 0.83377 0.18515 1.00
H 0.29742 0.26823 0.11846 1.00
H 0.32682 0.31512 0.18285 1.00
H 0.29416 0.34179 0.10451 1.00
H 0.09134 0.64573 0.94064 1.00
H 0.95819 0.66685 0.10364 1.00
O 0.88248 0.56395 0.86067 1.00
O 0.94727 0.60760 0.79643 1.00
C 0.80254 0.65000 0.83352 1.00
C 0.77253 0.72959 0.76116 1.00
C 0.85448 0.64741 0.79926 1.00
C 0.86459 0.68690 0.74582 1.00
C 0.82437 0.72694 0.72702 1.00
C 0.76205 0.69041 0.81551 1.00
C 0.89714 0.60354 0.81916 1.00
C 0.30876 0.29213 0.64527 1.00
O 0.66088 0.05362 0.44540 1.00
H 0.79343 0.62046 0.87500 1.00
H 0.90362 0.68656 0.71773 1.00
H 0.83377 0.75601 0.68515 1.00
H 0.26823 0.29742 0.61846 1.00
H 0.31512 0.32682 0.68285 1.00
H 0.34179 0.29416 0.60451 1.00
H 0.64573 0.09134 0.44064 1.00
H 0.66685 0.95819 0.60364 1.00
O 0.11752 0.43605 0.86067 1.00
O 0.05273 0.39240 0.79643 1.00
C 0.19746 0.35000 0.83352 1.00
C 0.22747 0.27041 0.76116 1.00
C 0.14552 0.35259 0.79926 1.00
C 0.13541 0.31310 0.74582 1.00
C 0.17563 0.27306 0.72702 1.00
C 0.23795 0.30959 0.81551 1.00
C 0.10286 0.39646 0.81916 1.00
C 0.69124 0.70787 0.64527 1.00
O 0.33912 0.94638 0.44540 1.00
H 0.20657 0.37954 0.87500 1.00
H 0.09638 0.31344 0.71773 1.00
H 0.16623 0.24399 0.68515 1.00
H 0.73177 0.70258 0.61846 1.00
H 0.68488 0.67318 0.68285 1.00
H 0.65821 0.70584 0.60451 1.00
H 0.35427 0.90866 0.44064 1.00
H 0.33315 0.04181 0.60364 1.00
O 0.43605 0.88248 0.36067 1.00
O 0.39240 0.94727 0.29643 1.00
C 0.35000 0.80254 0.33352 1.00
C 0.27041 0.77253 0.26116 1.00
C 0.35259 0.85448 0.29926 1.00
C 0.31310 0.86459 0.24582 1.00
C 0.27306 0.82437 0.22702 1.00
C 0.30959 0.76205 0.31551 1.00
C 0.39646 0.89714 0.31916 1.00
C 0.70787 0.30876 0.14527 1.00
O 0.94638 0.66088 0.94540 1.00
H 0.37954 0.79343 0.37500 1.00
H 0.31344 0.90362 0.21773 1.00
H 0.24399 0.83377 0.18515 1.00
H 0.70258 0.26823 0.11846 1.00
H 0.67318 0.31512 0.18285 1.00
H 0.70584 0.34179 0.10451 1.00
H 0.90866 0.64573 0.94064 1.00
H 0.04181 0.66685 0.10364 1.00
O 0.56395 0.11752 0.36067 1.00
O 0.60760 0.05273 0.29643 1.00
C 0.65000 0.19746 0.33352 1.00
C 0.72959 0.22747 0.26116 1.00
C 0.64741 0.14552 0.29926 1.00
C 0.68690 0.13541 0.24582 1.00
C 0.72694 0.17563 0.22702 1.00
C 0.69041 0.23795 0.31551 1.00
C 0.60354 0.10286 0.31916 1.00
C 0.29213 0.69124 0.14527 1.00
O 0.05362 0.33912 0.94540 1.00
H 0.62046 0.20657 0.37500 1.00
H 0.68656 0.09638 0.21773 1.00
H 0.75601 0.16623 0.18515 1.00
H 0.29742 0.73177 0.11846 1.00
H 0.32682 0.68488 0.18285 1.00
H 0.29416 0.65821 0.10451 1.00
H 0.09134 0.35427 0.94064 1.00
H 0.95819 0.33315 0.10364 1.00
O 0.11752 0.56395 0.13933 1.00
O 0.05273 0.60760 0.20357 1.00
C 0.19746 0.65000 0.16648 1.00
C 0.22747 0.72959 0.23884 1.00
C 0.14552 0.64741 0.20074 1.00
C 0.13541 0.68690 0.25418 1.00
C 0.17563 0.72694 0.27298 1.00
C 0.23795 0.69041 0.18449 1.00
C 0.10286 0.60354 0.18084 1.00
C 0.69124 0.29213 0.35473 1.00
O 0.33912 0.05362 0.55460 1.00
H 0.20657 0.62046 0.12500 1.00
H 0.09638 0.68656 0.28227 1.00
H 0.16623 0.75601 0.31485 1.00
H 0.73177 0.29742 0.38154 1.00
H 0.68488 0.32682 0.31715 1.00
H 0.65821 0.29416 0.39549 1.00
H 0.35427 0.09134 0.55936 1.00
H 0.33315 0.95819 0.39636 1.00
O 0.88248 0.43605 0.13933 1.00
O 0.94727 0.39240 0.20357 1.00
C 0.80254 0.35000 0.16648 1.00
C 0.77253 0.27041 0.23884 1.00
C 0.85448 0.35259 0.20074 1.00
C 0.86459 0.31310 0.25418 1.00
C 0.82437 0.27306 0.27298 1.00
C 0.76205 0.30959 0.18449 1.00
C 0.89714 0.39646 0.18084 1.00
C 0.30876 0.70787 0.35473 1.00
O 0.66088 0.94638 0.55460 1.00
H 0.79343 0.37954 0.12500 1.00
H 0.90362 0.31344 0.28227 1.00
H 0.83377 0.24399 0.31485 1.00
H 0.26823 0.70258 0.38154 1.00
H 0.31512 0.67318 0.31715 1.00
H 0.34179 0.70584 0.39549 1.00
H 0.64573 0.90866 0.55936 1.00
H 0.66685 0.04181 0.39636 1.00
O 0.56395 0.88248 0.63933 1.00
O 0.60760 0.94727 0.70357 1.00
C 0.65000 0.80254 0.66648 1.00
C 0.72959 0.77253 0.73884 1.00
C 0.64741 0.85448 0.70074 1.00
C 0.68690 0.86459 0.75418 1.00
C 0.72694 0.82437 0.77298 1.00
C 0.69041 0.76205 0.68449 1.00
C 0.60354 0.89714 0.68084 1.00
C 0.29213 0.30876 0.85473 1.00
O 0.05362 0.66088 0.05460 1.00
H 0.62046 0.79343 0.62500 1.00
H 0.68656 0.90362 0.78227 1.00
H 0.75601 0.83377 0.81485 1.00
H 0.29742 0.26823 0.88154 1.00
H 0.32682 0.31512 0.81715 1.00
H 0.29416 0.34179 0.89549 1.00
H 0.09134 0.64573 0.05936 1.00
H 0.95819 0.66685 0.89636 1.00
O 0.43605 0.11752 0.63933 1.00
O 0.39240 0.05273 0.70357 1.00
C 0.35000 0.19746 0.66648 1.00
C 0.27041 0.22747 0.73884 1.00
C 0.35259 0.14552 0.70074 1.00
C 0.31310 0.13541 0.75418 1.00
C 0.27306 0.17563 0.77298 1.00
C 0.30959 0.23795 0.68449 1.00
C 0.39646 0.10286 0.68084 1.00
C 0.70787 0.69124 0.85473 1.00
O 0.94638 0.33912 0.05460 1.00
H 0.37954 0.20657 0.62500 1.00
H 0.31344 0.09638 0.78227 1.00
H 0.24399 0.16623 0.81485 1.00
H 0.70258 0.73177 0.88154 1.00
H 0.67318 0.68488 0.81715 1.00
H 0.70584 0.65821 0.89549 1.00
H 0.90866 0.35427 0.05936 1.00
H 0.04181 0.33315 0.89636 1.00
Zr 0.07034 0.50000 0.09096 1.00
O 0.04964 0.50000 0.20074 1.00
Zr 0.92966 0.50000 0.09096 1.00
O 0.95036 0.50000 0.20074 1.00
Zr 0.50000 0.07034 0.59096 1.00
O 0.50000 0.04964 0.70074 1.00
Zr 0.50000 0.92966 0.59096 1.00
O 0.50000 0.95036 0.70074 1.00
Zr 0.92966 0.50000 0.90904 1.00
O 0.95036 0.50000 0.79926 1.00
Zr 0.07034 0.50000 0.90904 1.00
O 0.04964 0.50000 0.79926 1.00
Zr 0.50000 0.07034 0.40904 1.00
O 0.50000 0.04964 0.29926 1.00
Zr 0.50000 0.92966 0.40904 1.00
O 0.50000 0.95036 0.29926 1.00
Zr 0.00000 0.39585 0.00000 1.00
Zr 0.00000 0.60415 0.00000 1.00
Zr 0.60415 0.00000 0.50000 1.00
Zr 0.39585 0.00000 0.50000 1.00
O 0.00000 0.44780 0.10134 1.00
O 0.00000 0.55220 0.10134 1.00
O 0.55220 0.00000 0.60134 1.00
O 0.44780 0.00000 0.60134 1.00
O 0.00000 0.44780 0.89866 1.00
O 0.00000 0.55220 0.89866 1.00
O 0.44780 0.00000 0.39866 1.00
O 0.55220 0.00000 0.39866 1.00
O 0.06945 0.44857 0.00000 1.00
O 0.93055 0.55143 0.00000 1.00
O 0.55143 0.06945 0.50000 1.00
O 0.44857 0.93055 0.50000 1.00
O 0.93055 0.44857 0.00000 1.00
O 0.06945 0.55143 0.00000 1.00
O 0.44857 0.06945 0.50000 1.00
O 0.55143 0.93055 0.50000 1.00
H 0.42657 0.10364 0.50000 1.00
H 0.57343 0.89636 0.50000 1.00
H 0.89636 0.42657 0.00000 1.00
H 0.10364 0.57343 0.00000 1.00
H 0.57343 0.10364 0.50000 1.00
H 0.42657 0.89636 0.50000 1.00
H 0.10364 0.42657 0.00000 1.00
H 0.89636 0.57343 0.00000 1.00
Co -0.00000 0.44396 0.20248 1.00
Co -0.00000 0.55604 0.20248 1.00
Co 0.55604 0.00000 0.70248 1.00
Co 0.44396 0.00000 0.70248 1.00
Co -0.00000 0.44396 0.79752 1.00
Co -0.00000 0.55604 0.79752 1.00
Co 0.44396 0.00000 0.29752 1.00
Co 0.55604 0.00000 0.29752 1.00
Co 1.00000 0.44396 0.20248 1.00
Co 1.00000 0.55604 0.20248 1.00
Co 1.00000 0.44396 0.79752 1.00
Co 1.00000 0.55604 0.79752 1.00
Co 0.55604 1.00000 0.70248 1.00
Co 0.44396 1.00000 0.70248 1.00
Co 0.44396 1.00000 0.29752 1.00
Co 0.55604 1.00000 0.29752 1.00
N 0.04792 0.43191 0.42193 1.00
C 0.04869 0.43607 0.34850 1.00
H 0.08817 0.43670 0.32177 1.00
N -0.04792 0.56809 0.42193 1.00
C -0.04869 0.56393 0.34850 1.00
H -0.08817 0.56330 0.32177 1.00
N 0.56809 0.04792 -0.07807 1.00
C 0.56393 0.04869 -0.15150 1.00
H 0.56330 0.08817 -0.17823 1.00
N 0.43191 -0.04792 -0.07807 1.00
C 0.43607 -0.04869 -0.15150 1.00
H 0.43670 -0.08817 -0.17823 1.00
N -0.04792 0.43191 0.57807 1.00
C -0.04869 0.43607 0.65150 1.00
H -0.08817 0.43670 0.67823 1.00
N 0.04792 0.56809 0.57807 1.00
C 0.04869 0.56393 0.65150 1.00
H 0.08817 0.56330 0.67823 1.00
N 0.43191 0.04792 0.07807 1.00
C 0.43607 0.04869 0.15150 1.00
H 0.43670 0.08817 0.17823 1.00
N 0.56809 -0.04792 0.07807 1.00
C 0.56393 -0.04869 0.15150 1.00
H 0.56330 -0.08817 0.17823 1.00
N -0.04792 0.56809 0.57807 1.00
C -0.04869 0.56393 0.65150 1.00
H -0.08817 0.56330 0.67823 1.00
N 0.04792 0.43191 0.57807 1.00
C 0.04869 0.43607 0.65150 1.00
H 0.08817 0.43670 0.67823 1.00
N 0.43191 -0.04792 0.07807 1.00
C 0.43607 -0.04869 0.15150 1.00
H 0.43670 -0.08817 0.17823 1.00
N 0.56809 0.04792 0.07807 1.00
C 0.56393 0.04869 0.15150 1.00
H 0.56330 0.08817 0.17823 1.00
N 0.04792 0.56809 0.42193 1.00
C 0.04869 0.56393 0.34850 1.00
H 0.08817 0.56330 0.32177 1.00
N -0.04792 0.43191 0.42193 1.00
C -0.04869 0.43607 0.34850 1.00
H -0.08817 0.43670 0.32177 1.00
N 0.56809 -0.04792 -0.07807 1.00
C 0.56393 -0.04869 -0.15150 1.00
H 0.56330 -0.08817 -0.17823 1.00
N 0.43191 0.04792 -0.07807 1.00
C 0.43607 0.04869 -0.15150 1.00
H 0.43670 0.08817 -0.17823 1.00
N 0.00000 0.44043 0.30911 1.00
C 0.00000 0.43186 0.45882 1.00
N 0.00000 0.55957 0.30911 1.00
C 0.00000 0.56814 0.45882 1.00
N 0.55957 0.00000 -0.19089 1.00
C 0.56814 0.00000 -0.04118 1.00
N 0.44043 0.00000 -0.19089 1.00
C 0.43186 0.00000 -0.04118 1.00
N 0.00000 0.44043 0.69089 1.00
C 0.00000 0.43186 0.54118 1.00
N 0.00000 0.55957 0.69089 1.00
C 0.00000 0.56814 0.54118 1.00
N 0.44043 0.00000 0.19089 1.00
C 0.43186 0.00000 0.04118 1.00
N 0.55957 0.00000 0.19089 1.00
C 0.56814 0.00000 0.04118 1.00
Cu 0.10175 0.42340 0.50000 0.14
I 0.14669 0.32456 0.50000 0.10
Cu -0.10175 0.57660 0.50000 0.14
I -0.14669 0.67544 0.50000 0.10
Cu 0.57660 0.10175 0.00000 0.14
I 0.67544 0.14669 0.00000 0.10
Cu 0.42340 -0.10175 0.00000 0.14
I 0.32456 -0.14669 0.00000 0.10
Cu -0.10175 0.42340 0.50000 0.14
I -0.14669 0.32456 0.50000 0.10
Cu 0.10175 0.57660 0.50000 0.14
I 0.14669 0.67544 0.50000 0.10
Cu 0.42340 0.10175 0.00000 0.14
I 0.32456 0.14669 0.00000 0.10
Cu 0.57660 -0.10175 0.00000 0.14
I 0.67544 -0.14669 0.00000 0.10
I 0.17587 0.50000 0.50000 0.10
I -0.17587 0.50000 0.50000 0.10
I 0.50000 0.17587 0.00000 0.10
I 0.50000 -0.17587 0.00000 0.10
O 0.83280 0.50000 0.05880 1.00
C 0.72870 0.50000 0.06420 0.67
H 0.74868 0.50000 0.10721 0.67
C 0.67090 0.50000 0.06430 0.67
H 0.65111 0.50000 0.10747 0.67
O 0.16720 0.50000 0.05880 1.00
C 0.27130 0.50000 0.06420 0.67
H 0.25132 0.50000 0.10721 0.67
C 0.32910 0.50000 0.06430 0.67
H 0.34889 0.50000 0.10747 0.67
O 0.50000 0.83280 0.55880 1.00
C 0.50000 0.72870 0.56420 0.67
H 0.50000 0.74868 0.60721 0.67
C 0.50000 0.67090 0.56430 0.67
H 0.50000 0.65111 0.60747 0.67
O 0.50000 0.16720 0.55880 1.00
C 0.50000 0.27130 0.56420 0.67
H 0.50000 0.25132 0.60721 0.67
C 0.50000 0.32910 0.56430 0.67
H 0.50000 0.34889 0.60747 0.67
O 0.16720 0.50000 -0.05880 1.00
C 0.27130 0.50000 -0.06420 0.67
H 0.25132 0.50000 -0.10721 0.67
C 0.32910 0.50000 -0.06430 0.67
H 0.34889 0.50000 -0.10747 0.67
O 0.83280 0.50000 -0.05880 1.00
C 0.72870 0.50000 -0.06420 0.67
H 0.74868 0.50000 -0.10721 0.67
C 0.67090 0.50000 -0.06430 0.67
H 0.65111 0.50000 -0.10747 0.67
O 0.50000 0.83280 0.44120 1.00
C 0.50000 0.72870 0.43580 0.67
H 0.50000 0.74868 0.39279 0.67
C 0.50000 0.67090 0.43570 0.67
H 0.50000 0.65111 0.39253 0.67
O 0.50000 0.16720 0.44120 1.00
C 0.50000 0.27130 0.43580 0.67
H 0.50000 0.25132 0.39279 0.67
C 0.50000 0.32910 0.43570 0.67
H 0.50000 0.34889 0.39253 0.67
N 0.55430 0.44980 0.00000 0.67
N 0.44570 0.55020 0.00000 0.67
N 0.55020 0.55430 0.50000 0.67
N 0.44980 0.44570 0.50000 0.67
N 0.44570 0.44980 0.00000 0.67
N 0.55430 0.55020 0.00000 0.67
N 0.44980 0.55430 0.50000 0.67
N 0.55020 0.44570 0.50000 0.67
C 0.75600 0.50000 0.00000 0.67
C 0.81200 0.50000 0.00000 0.67
C 0.64300 0.50000 0.00000 0.67
C 0.58130 0.50000 0.00000 0.67
C 0.24400 0.50000 0.00000 0.67
C 0.18800 0.50000 0.00000 0.67
C 0.35700 0.50000 0.00000 0.67
C 0.41870 0.50000 0.00000 0.67
C 0.50000 0.75600 0.50000 0.67
C 0.50000 0.81200 0.50000 0.67
C 0.50000 0.64300 0.50000 0.67
C 0.50000 0.58130 0.50000 0.67
C 0.50000 0.24400 0.50000 0.67
C 0.50000 0.18800 0.50000 0.67
C 0.50000 0.35700 0.50000 0.67
C 0.50000 0.41870 0.50000 0.67
C 0.50000 0.47110 0.00000 0.34
C 0.50000 0.52890 0.00000 0.34
C 0.52890 0.50000 0.50000 0.34
C 0.47110 0.50000 0.50000 0.34
