data_06-A1
_audit_creation_date              2025-10-29
_audit_creation_method            'Materials Studio'
_symmetry_space_group_name_H-M    'P1'
_symmetry_Int_Tables_number       1
_symmetry_cell_setting            triclinic
loop_
_symmetry_equiv_pos_as_xyz
  x,y,z
_cell_length_a                    24.1696
_cell_length_b                    24.1696
_cell_length_c                    18.9154
_cell_angle_alpha                 90.0000
_cell_angle_beta                  90.0000
_cell_angle_gamma                 90.0000
loop_
_atom_site_label
_atom_site_type_symbol
_atom_site_fract_x
_atom_site_fract_y
_atom_site_fract_z
_atom_site_U_iso_or_equiv
_atom_site_adp_type
_atom_site_occupancy
O1     O     0.11752   0.43605   0.13933   0.04120  Uani   1.00
O2     O     0.05273   0.39240   0.20357   0.05616  Uani   1.00
C3     C     0.19746   0.35000   0.16648   0.07797  Uani   1.00
C4     C     0.22747   0.27041   0.23884   0.07893  Uani   1.00
C5     C     0.14552   0.35259   0.20074   0.06817  Uani   1.00
C6     C     0.13541   0.31310   0.25418   0.10780  Uani   1.00
C7     C     0.17563   0.27306   0.27298   0.11430  Uani   1.00
C8     C     0.23795   0.30959   0.18449   0.08952  Uani   1.00
C9     C     0.10286   0.39646   0.18084   0.05142  Uani   1.00
C10    C     0.69124   0.70787   0.35473   0.00000  Uiso   1.00
O11    O     0.33912   0.94638   0.55460   0.00000  Uiso   1.00
H12    H     0.20657   0.37954   0.12500   0.00000  Uiso   1.00
H13    H     0.09638   0.31344   0.28227   0.00000  Uiso   1.00
H14    H     0.16623   0.24399   0.31485   0.00000  Uiso   1.00
H15    H     0.73177   0.70258   0.38154   0.00000  Uiso   1.00
H16    H     0.68488   0.67318   0.31715   0.00000  Uiso   1.00
H17    H     0.65821   0.70584   0.39549   0.00000  Uiso   1.00
H18    H     0.35427   0.90866   0.55936   0.00000  Uiso   1.00
H19    H     0.33315   0.04181   0.39636   0.00000  Uiso   1.00
O20    O     0.88248   0.56395   0.13933   0.04120  Uani   1.00
O21    O     0.94727   0.60760   0.20357   0.05616  Uani   1.00
C22    C     0.80254   0.65000   0.16648   0.07797  Uani   1.00
C23    C     0.77253   0.72959   0.23884   0.07893  Uani   1.00
C24    C     0.85448   0.64741   0.20074   0.06817  Uani   1.00
C25    C     0.86459   0.68690   0.25418   0.10780  Uani   1.00
C26    C     0.82437   0.72694   0.27298   0.11430  Uani   1.00
C27    C     0.76205   0.69041   0.18449   0.08952  Uani   1.00
C28    C     0.89714   0.60354   0.18084   0.05142  Uani   1.00
C29    C     0.30876   0.29213   0.35473   0.00000  Uiso   1.00
O30    O     0.66088   0.05362   0.55460   0.00000  Uiso   1.00
H31    H     0.79343   0.62046   0.12500   0.00000  Uiso   1.00
H32    H     0.90362   0.68656   0.28227   0.00000  Uiso   1.00
H33    H     0.83377   0.75601   0.31485   0.00000  Uiso   1.00
H34    H     0.26823   0.29742   0.38154   0.00000  Uiso   1.00
H35    H     0.31512   0.32682   0.31715   0.00000  Uiso   1.00
H36    H     0.34179   0.29416   0.39549   0.00000  Uiso   1.00
H37    H     0.64573   0.09134   0.55936   0.00000  Uiso   1.00
H38    H     0.66685   0.95819   0.39636   0.00000  Uiso   1.00
O39    O     0.56395   0.11752   0.63933   0.04120  Uani   1.00
O40    O     0.60760   0.05273   0.70357   0.05616  Uani   1.00
C41    C     0.65000   0.19746   0.66648   0.07797  Uani   1.00
C42    C     0.72959   0.22747   0.73884   0.07893  Uani   1.00
C43    C     0.64741   0.14552   0.70074   0.06817  Uani   1.00
C44    C     0.68690   0.13541   0.75418   0.10780  Uani   1.00
C45    C     0.72694   0.17563   0.77298   0.11430  Uani   1.00
C46    C     0.69041   0.23795   0.68449   0.08952  Uani   1.00
C47    C     0.60354   0.10286   0.68084   0.05142  Uani   1.00
C48    C     0.29213   0.69124   0.85473   0.00000  Uiso   1.00
O49    O     0.05362   0.33912   0.05460   0.00000  Uiso   1.00
H50    H     0.62046   0.20657   0.62500   0.00000  Uiso   1.00
H51    H     0.68656   0.09638   0.78227   0.00000  Uiso   1.00
H52    H     0.75601   0.16623   0.81485   0.00000  Uiso   1.00
H53    H     0.29742   0.73177   0.88154   0.00000  Uiso   1.00
H54    H     0.32682   0.68488   0.81715   0.00000  Uiso   1.00
H55    H     0.29416   0.65821   0.89549   0.00000  Uiso   1.00
H56    H     0.09134   0.35427   0.05936   0.00000  Uiso   1.00
H57    H     0.95819   0.33315   0.89636   0.00000  Uiso   1.00
O58    O     0.43605   0.88248   0.63933   0.04120  Uani   1.00
O59    O     0.39240   0.94727   0.70357   0.05616  Uani   1.00
C60    C     0.35000   0.80254   0.66648   0.07797  Uani   1.00
C61    C     0.27041   0.77253   0.73884   0.07893  Uani   1.00
C62    C     0.35259   0.85448   0.70074   0.06817  Uani   1.00
C63    C     0.31310   0.86459   0.75418   0.10780  Uani   1.00
C64    C     0.27306   0.82437   0.77298   0.11430  Uani   1.00
C65    C     0.30959   0.76205   0.68449   0.08952  Uani   1.00
C66    C     0.39646   0.89714   0.68084   0.05142  Uani   1.00
C67    C     0.70787   0.30876   0.85473   0.00000  Uiso   1.00
O68    O     0.94638   0.66088   0.05460   0.00000  Uiso   1.00
H69    H     0.37954   0.79343   0.62500   0.00000  Uiso   1.00
H70    H     0.31344   0.90362   0.78227   0.00000  Uiso   1.00
H71    H     0.24399   0.83377   0.81485   0.00000  Uiso   1.00
H72    H     0.70258   0.26823   0.88154   0.00000  Uiso   1.00
H73    H     0.67318   0.31512   0.81715   0.00000  Uiso   1.00
H74    H     0.70584   0.34179   0.89549   0.00000  Uiso   1.00
H75    H     0.90866   0.64573   0.05936   0.00000  Uiso   1.00
H76    H     0.04181   0.66685   0.89636   0.00000  Uiso   1.00
O77    O     0.88248   0.43605   0.86067   0.04120  Uani   1.00
O78    O     0.94727   0.39240   0.79643   0.05616  Uani   1.00
C79    C     0.80254   0.35000   0.83352   0.07797  Uani   1.00
C80    C     0.77253   0.27041   0.76116   0.07893  Uani   1.00
C81    C     0.85448   0.35259   0.79926   0.06817  Uani   1.00
C82    C     0.86459   0.31310   0.74582   0.10780  Uani   1.00
C83    C     0.82437   0.27306   0.72702   0.11430  Uani   1.00
C84    C     0.76205   0.30959   0.81551   0.08952  Uani   1.00
C85    C     0.89714   0.39646   0.81916   0.05142  Uani   1.00
C86    C     0.30876   0.70787   0.64527   0.00000  Uiso   1.00
O87    O     0.66088   0.94638   0.44540   0.00000  Uiso   1.00
H88    H     0.79343   0.37954   0.87500   0.00000  Uiso   1.00
H89    H     0.90362   0.31344   0.71773   0.00000  Uiso   1.00
H90    H     0.83377   0.24399   0.68515   0.00000  Uiso   1.00
H91    H     0.26823   0.70258   0.61846   0.00000  Uiso   1.00
H92    H     0.31512   0.67318   0.68285   0.00000  Uiso   1.00
H93    H     0.34179   0.70584   0.60451   0.00000  Uiso   1.00
H94    H     0.64573   0.90866   0.44064   0.00000  Uiso   1.00
H95    H     0.66685   0.04181   0.60364   0.00000  Uiso   1.00
O96    O     0.11752   0.56395   0.86067   0.04120  Uani   1.00
O97    O     0.05273   0.60760   0.79643   0.05616  Uani   1.00
C98    C     0.19746   0.65000   0.83352   0.07797  Uani   1.00
C99    C     0.22747   0.72959   0.76116   0.07893  Uani   1.00
C100   C     0.14552   0.64741   0.79926   0.06817  Uani   1.00
C101   C     0.13541   0.68690   0.74582   0.10780  Uani   1.00
C102   C     0.17563   0.72694   0.72702   0.11430  Uani   1.00
C103   C     0.23795   0.69041   0.81551   0.08952  Uani   1.00
C104   C     0.10286   0.60354   0.81916   0.05142  Uani   1.00
C105   C     0.69124   0.29213   0.64527   0.00000  Uiso   1.00
O106   O     0.33912   0.05362   0.44540   0.00000  Uiso   1.00
H107   H     0.20657   0.62046   0.87500   0.00000  Uiso   1.00
H108   H     0.09638   0.68656   0.71773   0.00000  Uiso   1.00
H109   H     0.16623   0.75601   0.68515   0.00000  Uiso   1.00
H110   H     0.73177   0.29742   0.61846   0.00000  Uiso   1.00
H111   H     0.68488   0.32682   0.68285   0.00000  Uiso   1.00
H112   H     0.65821   0.29416   0.60451   0.00000  Uiso   1.00
H113   H     0.35427   0.09134   0.44064   0.00000  Uiso   1.00
H114   H     0.33315   0.95819   0.60364   0.00000  Uiso   1.00
O115   O     0.43605   0.11752   0.36067   0.04120  Uani   1.00
O116   O     0.39240   0.05273   0.29643   0.05616  Uani   1.00
C117   C     0.35000   0.19746   0.33352   0.07797  Uani   1.00
C118   C     0.27041   0.22747   0.26116   0.07893  Uani   1.00
C119   C     0.35259   0.14552   0.29926   0.06817  Uani   1.00
C120   C     0.31310   0.13541   0.24582   0.10780  Uani   1.00
C121   C     0.27306   0.17563   0.22702   0.11430  Uani   1.00
C122   C     0.30959   0.23795   0.31551   0.08952  Uani   1.00
C123   C     0.39646   0.10286   0.31916   0.05142  Uani   1.00
C124   C     0.70787   0.69124   0.14527   0.00000  Uiso   1.00
O125   O     0.94638   0.33912   0.94540   0.00000  Uiso   1.00
H126   H     0.37954   0.20657   0.37500   0.00000  Uiso   1.00
H127   H     0.31344   0.09638   0.21773   0.00000  Uiso   1.00
H128   H     0.24399   0.16623   0.18515   0.00000  Uiso   1.00
H129   H     0.70258   0.73177   0.11846   0.00000  Uiso   1.00
H130   H     0.67318   0.68488   0.18285   0.00000  Uiso   1.00
H131   H     0.70584   0.65821   0.10451   0.00000  Uiso   1.00
H132   H     0.90866   0.35427   0.94064   0.00000  Uiso   1.00
H133   H     0.04181   0.33315   0.10364   0.00000  Uiso   1.00
O134   O     0.56395   0.88248   0.36067   0.04120  Uani   1.00
O135   O     0.60760   0.94727   0.29643   0.05616  Uani   1.00
C136   C     0.65000   0.80254   0.33352   0.07797  Uani   1.00
C137   C     0.72959   0.77253   0.26116   0.07893  Uani   1.00
C138   C     0.64741   0.85448   0.29926   0.06817  Uani   1.00
C139   C     0.68690   0.86459   0.24582   0.10780  Uani   1.00
C140   C     0.72694   0.82437   0.22702   0.11430  Uani   1.00
C141   C     0.69041   0.76205   0.31551   0.08952  Uani   1.00
C142   C     0.60354   0.89714   0.31916   0.05142  Uani   1.00
C143   C     0.29213   0.30876   0.14527   0.00000  Uiso   1.00
O144   O     0.05362   0.66088   0.94540   0.00000  Uiso   1.00
H145   H     0.62046   0.79343   0.37500   0.00000  Uiso   1.00
H146   H     0.68656   0.90362   0.21773   0.00000  Uiso   1.00
H147   H     0.75601   0.83377   0.18515   0.00000  Uiso   1.00
H148   H     0.29742   0.26823   0.11846   0.00000  Uiso   1.00
H149   H     0.32682   0.31512   0.18285   0.00000  Uiso   1.00
H150   H     0.29416   0.34179   0.10451   0.00000  Uiso   1.00
H151   H     0.09134   0.64573   0.94064   0.00000  Uiso   1.00
H152   H     0.95819   0.66685   0.10364   0.00000  Uiso   1.00
O153   O     0.88248   0.56395   0.86067   0.04120  Uani   1.00
O154   O     0.94727   0.60760   0.79643   0.05616  Uani   1.00
C155   C     0.80254   0.65000   0.83352   0.07797  Uani   1.00
C156   C     0.77253   0.72959   0.76116   0.07893  Uani   1.00
C157   C     0.85448   0.64741   0.79926   0.06817  Uani   1.00
C158   C     0.86459   0.68690   0.74582   0.10780  Uani   1.00
C159   C     0.82437   0.72694   0.72702   0.11430  Uani   1.00
C160   C     0.76205   0.69041   0.81551   0.08952  Uani   1.00
C161   C     0.89714   0.60354   0.81916   0.05142  Uani   1.00
C162   C     0.30876   0.29213   0.64527   0.00000  Uiso   1.00
O163   O     0.66088   0.05362   0.44540   0.00000  Uiso   1.00
H164   H     0.79343   0.62046   0.87500   0.00000  Uiso   1.00
H165   H     0.90362   0.68656   0.71773   0.00000  Uiso   1.00
H166   H     0.83377   0.75601   0.68515   0.00000  Uiso   1.00
H167   H     0.26823   0.29742   0.61846   0.00000  Uiso   1.00
H168   H     0.31512   0.32682   0.68285   0.00000  Uiso   1.00
H169   H     0.34179   0.29416   0.60451   0.00000  Uiso   1.00
H170   H     0.64573   0.09134   0.44064   0.00000  Uiso   1.00
H171   H     0.66685   0.95819   0.60364   0.00000  Uiso   1.00
O172   O     0.11752   0.43605   0.86067   0.04120  Uani   1.00
O173   O     0.05273   0.39240   0.79643   0.05616  Uani   1.00
C174   C     0.19746   0.35000   0.83352   0.07797  Uani   1.00
C175   C     0.22747   0.27041   0.76116   0.07893  Uani   1.00
C176   C     0.14552   0.35259   0.79926   0.06817  Uani   1.00
C177   C     0.13541   0.31310   0.74582   0.10780  Uani   1.00
C178   C     0.17563   0.27306   0.72702   0.11430  Uani   1.00
C179   C     0.23795   0.30959   0.81551   0.08952  Uani   1.00
C180   C     0.10286   0.39646   0.81916   0.05142  Uani   1.00
C181   C     0.69124   0.70787   0.64527   0.00000  Uiso   1.00
O182   O     0.33912   0.94638   0.44540   0.00000  Uiso   1.00
H183   H     0.20657   0.37954   0.87500   0.00000  Uiso   1.00
H184   H     0.09638   0.31344   0.71773   0.00000  Uiso   1.00
H185   H     0.16623   0.24399   0.68515   0.00000  Uiso   1.00
H186   H     0.73177   0.70258   0.61846   0.00000  Uiso   1.00
H187   H     0.68488   0.67318   0.68285   0.00000  Uiso   1.00
H188   H     0.65821   0.70584   0.60451   0.00000  Uiso   1.00
H189   H     0.35427   0.90866   0.44064   0.00000  Uiso   1.00
H190   H     0.33315   0.04181   0.60364   0.00000  Uiso   1.00
O191   O     0.43605   0.88248   0.36067   0.04120  Uani   1.00
O192   O     0.39240   0.94727   0.29643   0.05616  Uani   1.00
C193   C     0.35000   0.80254   0.33352   0.07797  Uani   1.00
C194   C     0.27041   0.77253   0.26116   0.07893  Uani   1.00
C195   C     0.35259   0.85448   0.29926   0.06817  Uani   1.00
C196   C     0.31310   0.86459   0.24582   0.10780  Uani   1.00
C197   C     0.27306   0.82437   0.22702   0.11430  Uani   1.00
C198   C     0.30959   0.76205   0.31551   0.08952  Uani   1.00
C199   C     0.39646   0.89714   0.31916   0.05142  Uani   1.00
C200   C     0.70787   0.30876   0.14527   0.00000  Uiso   1.00
O201   O     0.94638   0.66088   0.94540   0.00000  Uiso   1.00
H202   H     0.37954   0.79343   0.37500   0.00000  Uiso   1.00
H203   H     0.31344   0.90362   0.21773   0.00000  Uiso   1.00
H204   H     0.24399   0.83377   0.18515   0.00000  Uiso   1.00
H205   H     0.70258   0.26823   0.11846   0.00000  Uiso   1.00
H206   H     0.67318   0.31512   0.18285   0.00000  Uiso   1.00
H207   H     0.70584   0.34179   0.10451   0.00000  Uiso   1.00
H208   H     0.90866   0.64573   0.94064   0.00000  Uiso   1.00
H209   H     0.04181   0.66685   0.10364   0.00000  Uiso   1.00
O210   O     0.56395   0.11752   0.36067   0.04120  Uani   1.00
O211   O     0.60760   0.05273   0.29643   0.05616  Uani   1.00
C212   C     0.65000   0.19746   0.33352   0.07797  Uani   1.00
C213   C     0.72959   0.22747   0.26116   0.07893  Uani   1.00
C214   C     0.64741   0.14552   0.29926   0.06817  Uani   1.00
C215   C     0.68690   0.13541   0.24582   0.10780  Uani   1.00
C216   C     0.72694   0.17563   0.22702   0.11430  Uani   1.00
C217   C     0.69041   0.23795   0.31551   0.08952  Uani   1.00
C218   C     0.60354   0.10286   0.31916   0.05142  Uani   1.00
C219   C     0.29213   0.69124   0.14527   0.00000  Uiso   1.00
O220   O     0.05362   0.33912   0.94540   0.00000  Uiso   1.00
H221   H     0.62046   0.20657   0.37500   0.00000  Uiso   1.00
H222   H     0.68656   0.09638   0.21773   0.00000  Uiso   1.00
H223   H     0.75601   0.16623   0.18515   0.00000  Uiso   1.00
H224   H     0.29742   0.73177   0.11846   0.00000  Uiso   1.00
H225   H     0.32682   0.68488   0.18285   0.00000  Uiso   1.00
H226   H     0.29416   0.65821   0.10451   0.00000  Uiso   1.00
H227   H     0.09134   0.35427   0.94064   0.00000  Uiso   1.00
H228   H     0.95819   0.33315   0.10364   0.00000  Uiso   1.00
O229   O     0.11752   0.56395   0.13933   0.04120  Uani   1.00
O230   O     0.05273   0.60760   0.20357   0.05616  Uani   1.00
C231   C     0.19746   0.65000   0.16648   0.07797  Uani   1.00
C232   C     0.22747   0.72959   0.23884   0.07893  Uani   1.00
C233   C     0.14552   0.64741   0.20074   0.06817  Uani   1.00
C234   C     0.13541   0.68690   0.25418   0.10780  Uani   1.00
C235   C     0.17563   0.72694   0.27298   0.11430  Uani   1.00
C236   C     0.23795   0.69041   0.18449   0.08952  Uani   1.00
C237   C     0.10286   0.60354   0.18084   0.05142  Uani   1.00
C238   C     0.69124   0.29213   0.35473   0.00000  Uiso   1.00
O239   O     0.33912   0.05362   0.55460   0.00000  Uiso   1.00
H240   H     0.20657   0.62046   0.12500   0.00000  Uiso   1.00
H241   H     0.09638   0.68656   0.28227   0.00000  Uiso   1.00
H242   H     0.16623   0.75601   0.31485   0.00000  Uiso   1.00
H243   H     0.73177   0.29742   0.38154   0.00000  Uiso   1.00
H244   H     0.68488   0.32682   0.31715   0.00000  Uiso   1.00
H245   H     0.65821   0.29416   0.39549   0.00000  Uiso   1.00
H246   H     0.35427   0.09134   0.55936   0.00000  Uiso   1.00
H247   H     0.33315   0.95819   0.39636   0.00000  Uiso   1.00
O248   O     0.88248   0.43605   0.13933   0.04120  Uani   1.00
O249   O     0.94727   0.39240   0.20357   0.05616  Uani   1.00
C250   C     0.80254   0.35000   0.16648   0.07797  Uani   1.00
C251   C     0.77253   0.27041   0.23884   0.07893  Uani   1.00
C252   C     0.85448   0.35259   0.20074   0.06817  Uani   1.00
C253   C     0.86459   0.31310   0.25418   0.10780  Uani   1.00
C254   C     0.82437   0.27306   0.27298   0.11430  Uani   1.00
C255   C     0.76205   0.30959   0.18449   0.08952  Uani   1.00
C256   C     0.89714   0.39646   0.18084   0.05142  Uani   1.00
C257   C     0.30876   0.70787   0.35473   0.00000  Uiso   1.00
O258   O     0.66088   0.94638   0.55460   0.00000  Uiso   1.00
H259   H     0.79343   0.37954   0.12500   0.00000  Uiso   1.00
H260   H     0.90362   0.31344   0.28227   0.00000  Uiso   1.00
H261   H     0.83377   0.24399   0.31485   0.00000  Uiso   1.00
H262   H     0.26823   0.70258   0.38154   0.00000  Uiso   1.00
H263   H     0.31512   0.67318   0.31715   0.00000  Uiso   1.00
H264   H     0.34179   0.70584   0.39549   0.00000  Uiso   1.00
H265   H     0.64573   0.90866   0.55936   0.00000  Uiso   1.00
H266   H     0.66685   0.04181   0.39636   0.00000  Uiso   1.00
O267   O     0.56395   0.88248   0.63933   0.04120  Uani   1.00
O268   O     0.60760   0.94727   0.70357   0.05616  Uani   1.00
C269   C     0.65000   0.80254   0.66648   0.07797  Uani   1.00
C270   C     0.72959   0.77253   0.73884   0.07893  Uani   1.00
C271   C     0.64741   0.85448   0.70074   0.06817  Uani   1.00
C272   C     0.68690   0.86459   0.75418   0.10780  Uani   1.00
C273   C     0.72694   0.82437   0.77298   0.11430  Uani   1.00
C274   C     0.69041   0.76205   0.68449   0.08952  Uani   1.00
C275   C     0.60354   0.89714   0.68084   0.05142  Uani   1.00
C276   C     0.29213   0.30876   0.85473   0.00000  Uiso   1.00
O277   O     0.05362   0.66088   0.05460   0.00000  Uiso   1.00
H278   H     0.62046   0.79343   0.62500   0.00000  Uiso   1.00
H279   H     0.68656   0.90362   0.78227   0.00000  Uiso   1.00
H280   H     0.75601   0.83377   0.81485   0.00000  Uiso   1.00
H281   H     0.29742   0.26823   0.88154   0.00000  Uiso   1.00
H282   H     0.32682   0.31512   0.81715   0.00000  Uiso   1.00
H283   H     0.29416   0.34179   0.89549   0.00000  Uiso   1.00
H284   H     0.09134   0.64573   0.05936   0.00000  Uiso   1.00
H285   H     0.95819   0.66685   0.89636   0.00000  Uiso   1.00
O286   O     0.43605   0.11752   0.63933   0.04120  Uani   1.00
O287   O     0.39240   0.05273   0.70357   0.05616  Uani   1.00
C288   C     0.35000   0.19746   0.66648   0.07797  Uani   1.00
C289   C     0.27041   0.22747   0.73884   0.07893  Uani   1.00
C290   C     0.35259   0.14552   0.70074   0.06817  Uani   1.00
C291   C     0.31310   0.13541   0.75418   0.10780  Uani   1.00
C292   C     0.27306   0.17563   0.77298   0.11430  Uani   1.00
C293   C     0.30959   0.23795   0.68449   0.08952  Uani   1.00
C294   C     0.39646   0.10286   0.68084   0.05142  Uani   1.00
C295   C     0.70787   0.69124   0.85473   0.00000  Uiso   1.00
O296   O     0.94638   0.33912   0.05460   0.00000  Uiso   1.00
H297   H     0.37954   0.20657   0.62500   0.00000  Uiso   1.00
H298   H     0.31344   0.09638   0.78227   0.00000  Uiso   1.00
H299   H     0.24399   0.16623   0.81485   0.00000  Uiso   1.00
H300   H     0.70258   0.73177   0.88154   0.00000  Uiso   1.00
H301   H     0.67318   0.68488   0.81715   0.00000  Uiso   1.00
H302   H     0.70584   0.65821   0.89549   0.00000  Uiso   1.00
H303   H     0.90866   0.35427   0.05936   0.00000  Uiso   1.00
H304   H     0.04181   0.33315   0.89636   0.00000  Uiso   1.00
Zr305  Zr    0.07034   0.50000   0.09096   0.02645  Uani   1.00
O306   O     0.04964   0.50000   0.20074   0.04357  Uani   1.00
Zr307  Zr    0.92966   0.50000   0.09096   0.02645  Uani   1.00
O308   O     0.95036   0.50000   0.20074   0.04357  Uani   1.00
Zr309  Zr    0.50000   0.07034   0.59096   0.02645  Uani   1.00
O310   O     0.50000   0.04964   0.70074   0.04357  Uani   1.00
Zr311  Zr    0.50000   0.92966   0.59096   0.02645  Uani   1.00
O312   O     0.50000   0.95036   0.70074   0.04357  Uani   1.00
Zr313  Zr    0.92966   0.50000   0.90904   0.02645  Uani   1.00
O314   O     0.95036   0.50000   0.79926   0.04357  Uani   1.00
Zr315  Zr    0.07034   0.50000   0.90904   0.02645  Uani   1.00
O316   O     0.04964   0.50000   0.79926   0.04357  Uani   1.00
Zr317  Zr    0.50000   0.07034   0.40904   0.02645  Uani   1.00
O318   O     0.50000   0.04964   0.29926   0.04357  Uani   1.00
Zr319  Zr    0.50000   0.92966   0.40904   0.02645  Uani   1.00
O320   O     0.50000   0.95036   0.29926   0.04357  Uani   1.00
Zr321  Zr    0.00000   0.39585   0.00000   0.03196  Uani   1.00
Zr322  Zr    0.00000   0.60415   0.00000   0.03196  Uani   1.00
Zr323  Zr    0.60415   0.00000   0.50000   0.03196  Uani   1.00
Zr324  Zr    0.39585   0.00000   0.50000   0.03196  Uani   1.00
O325   O     0.00000   0.44780   0.10134   0.03008  Uani   1.00
O326   O     0.00000   0.55220   0.10134   0.03008  Uani   1.00
O327   O     0.55220   0.00000   0.60134   0.03008  Uani   1.00
O328   O     0.44780   0.00000   0.60134   0.03008  Uani   1.00
O329   O     0.00000   0.44780   0.89866   0.03008  Uani   1.00
O330   O     0.00000   0.55220   0.89866   0.03008  Uani   1.00
O331   O     0.44780   0.00000   0.39866   0.03008  Uani   1.00
O332   O     0.55220   0.00000   0.39866   0.03008  Uani   1.00
O333   O     0.06945   0.44857   0.00000   0.03588  Uani   1.00
O334   O     0.93055   0.55143   0.00000   0.03588  Uani   1.00
O335   O     0.55143   0.06945   0.50000   0.03588  Uani   1.00
O336   O     0.44857   0.93055   0.50000   0.03588  Uani   1.00
O337   O     0.93055   0.44857   0.00000   0.03588  Uani   1.00
O338   O     0.06945   0.55143   0.00000   0.03588  Uani   1.00
O339   O     0.44857   0.06945   0.50000   0.03588  Uani   1.00
O340   O     0.55143   0.93055   0.50000   0.03588  Uani   1.00
H341   H     0.42657   0.10364   0.50000   0.00000  Uiso   1.00
H342   H     0.57343   0.89636   0.50000   0.00000  Uiso   1.00
H343   H     0.89636   0.42657   0.00000   0.00000  Uiso   1.00
H344   H     0.10364   0.57343   0.00000   0.00000  Uiso   1.00
H345   H     0.57343   0.10364   0.50000   0.00000  Uiso   1.00
H346   H     0.42657   0.89636   0.50000   0.00000  Uiso   1.00
H347   H     0.10364   0.42657   0.00000   0.00000  Uiso   1.00
H348   H     0.89636   0.57343   0.00000   0.00000  Uiso   1.00
Ni349  Ni   -0.00000   0.44396   0.20248   0.04745  Uani   1.00
Ni350  Ni   -0.00000   0.55604   0.20248   0.04745  Uani   1.00
Ni351  Ni    0.55604   0.00000   0.70248   0.04745  Uani   1.00
Ni352  Ni    0.44396   0.00000   0.70248   0.04745  Uani   1.00
Ni353  Ni   -0.00000   0.44396   0.79752   0.04745  Uani   1.00
Ni354  Ni   -0.00000   0.55604   0.79752   0.04745  Uani   1.00
Ni355  Ni    0.44396   0.00000   0.29752   0.04745  Uani   1.00
Ni356  Ni    0.55604   0.00000   0.29752   0.04745  Uani   1.00
Ni357  Ni    1.00000   0.44396   0.20248   0.04745  Uani   1.00
Ni358  Ni    1.00000   0.55604   0.20248   0.04745  Uani   1.00
Ni359  Ni    1.00000   0.44396   0.79752   0.04745  Uani   1.00
Ni360  Ni    1.00000   0.55604   0.79752   0.04745  Uani   1.00
Ni361  Ni    0.55604   1.00000   0.70248   0.04745  Uani   1.00
Ni362  Ni    0.44396   1.00000   0.70248   0.04745  Uani   1.00
Ni363  Ni    0.44396   1.00000   0.29752   0.04745  Uani   1.00
Ni364  Ni    0.55604   1.00000   0.29752   0.04745  Uani   1.00
loop_
_atom_site_aniso_label
_atom_site_aniso_U_11
_atom_site_aniso_U_22
_atom_site_aniso_U_33
_atom_site_aniso_U_12
_atom_site_aniso_U_13
_atom_site_aniso_U_23
O1        0.02715   0.05176   0.04468   0.00252  -0.00125   0.02039
O2        0.03757   0.08278   0.04813   0.00573  -0.00585   0.03686
C3        0.03886   0.07499   0.12005   0.01633  -0.00717   0.04419
C4        0.06053   0.07158   0.10469   0.01903  -0.02059   0.03300
C5        0.03534   0.07072   0.09845   0.01067   0.00292   0.04794
C6        0.08238   0.13583   0.10520   0.03224   0.00666   0.08330
C7        0.09238   0.11450   0.13602   0.02359  -0.01224   0.06506
C8        0.05411   0.08448   0.12998   0.02187  -0.01482   0.04016
C9        0.03104   0.07694   0.04627   0.00301  -0.00789   0.02690
O20       0.02715   0.05176   0.04468   0.00252   0.00125  -0.02039
O21       0.03757   0.08278   0.04813   0.00573   0.00585  -0.03686
C22       0.03886   0.07499   0.12005   0.01633   0.00717  -0.04419
C23       0.06053   0.07158   0.10469   0.01903   0.02059  -0.03300
C24       0.03534   0.07072   0.09845   0.01067  -0.00292  -0.04794
C25       0.08238   0.13583   0.10520   0.03224  -0.00666  -0.08330
C26       0.09238   0.11450   0.13602   0.02359   0.01224  -0.06506
C27       0.05411   0.08448   0.12998   0.02187   0.01482  -0.04016
C28       0.03104   0.07694   0.04627   0.00301   0.00789  -0.02690
O39       0.05176   0.02715   0.04468  -0.00252  -0.02039  -0.00125
O40       0.08278   0.03757   0.04813  -0.00573  -0.03686  -0.00585
C41       0.07499   0.03886   0.12005  -0.01633  -0.04419  -0.00717
C42       0.07158   0.06053   0.10469  -0.01903  -0.03300  -0.02059
C43       0.07072   0.03534   0.09845  -0.01067  -0.04794   0.00292
C44       0.13583   0.08238   0.10520  -0.03224  -0.08330   0.00666
C45       0.11450   0.09238   0.13602  -0.02359  -0.06506  -0.01224
C46       0.08448   0.05411   0.12998  -0.02187  -0.04016  -0.01482
C47       0.07694   0.03104   0.04627  -0.00301  -0.02690  -0.00789
O58       0.05176   0.02715   0.04468  -0.00252   0.02039   0.00125
O59       0.08278   0.03757   0.04813  -0.00573   0.03686   0.00585
C60       0.07499   0.03886   0.12005  -0.01633   0.04419   0.00717
C61       0.07158   0.06053   0.10469  -0.01903   0.03300   0.02059
C62       0.07072   0.03534   0.09845  -0.01067   0.04794  -0.00292
C63       0.13583   0.08238   0.10520  -0.03224   0.08330  -0.00666
C64       0.11450   0.09238   0.13602  -0.02359   0.06506   0.01224
C65       0.08448   0.05411   0.12998  -0.02187   0.04016   0.01482
C66       0.07694   0.03104   0.04627  -0.00301   0.02690   0.00789
O77       0.02715   0.05176   0.04468  -0.00252  -0.00125  -0.02039
O78       0.03757   0.08278   0.04813  -0.00573  -0.00585  -0.03686
C79       0.03886   0.07499   0.12005  -0.01633  -0.00717  -0.04419
C80       0.06053   0.07158   0.10469  -0.01903  -0.02059  -0.03300
C81       0.03534   0.07072   0.09845  -0.01067   0.00292  -0.04794
C82       0.08238   0.13583   0.10520  -0.03224   0.00666  -0.08330
C83       0.09238   0.11450   0.13602  -0.02359  -0.01224  -0.06506
C84       0.05411   0.08448   0.12998  -0.02187  -0.01482  -0.04016
C85       0.03104   0.07694   0.04627  -0.00301  -0.00789  -0.02690
O96       0.02715   0.05176   0.04468  -0.00252   0.00125   0.02039
O97       0.03757   0.08278   0.04813  -0.00573   0.00585   0.03686
C98       0.03886   0.07499   0.12005  -0.01633   0.00717   0.04419
C99       0.06053   0.07158   0.10469  -0.01903   0.02059   0.03300
C100      0.03534   0.07072   0.09845  -0.01067  -0.00292   0.04794
C101      0.08238   0.13583   0.10520  -0.03224  -0.00666   0.08330
C102      0.09238   0.11450   0.13602  -0.02359   0.01224   0.06506
C103      0.05411   0.08448   0.12998  -0.02187   0.01482   0.04016
C104      0.03104   0.07694   0.04627  -0.00301   0.00789   0.02690
O115      0.05176   0.02715   0.04468   0.00252  -0.02039   0.00125
O116      0.08278   0.03757   0.04813   0.00573  -0.03686   0.00585
C117      0.07499   0.03886   0.12005   0.01633  -0.04419   0.00717
C118      0.07158   0.06053   0.10469   0.01903  -0.03300   0.02059
C119      0.07072   0.03534   0.09845   0.01067  -0.04794  -0.00292
C120      0.13583   0.08238   0.10520   0.03224  -0.08330  -0.00666
C121      0.11450   0.09238   0.13602   0.02359  -0.06506   0.01224
C122      0.08448   0.05411   0.12998   0.02187  -0.04016   0.01482
C123      0.07694   0.03104   0.04627   0.00301  -0.02690   0.00789
O134      0.05176   0.02715   0.04468   0.00252   0.02039  -0.00125
O135      0.08278   0.03757   0.04813   0.00573   0.03686  -0.00585
C136      0.07499   0.03886   0.12005   0.01633   0.04419  -0.00717
C137      0.07158   0.06053   0.10469   0.01903   0.03300  -0.02059
C138      0.07072   0.03534   0.09845   0.01067   0.04794   0.00292
C139      0.13583   0.08238   0.10520   0.03224   0.08330   0.00666
C140      0.11450   0.09238   0.13602   0.02359   0.06506  -0.01224
C141      0.08448   0.05411   0.12998   0.02187   0.04016  -0.01482
C142      0.07694   0.03104   0.04627   0.00301   0.02690  -0.00789
O153      0.02715   0.05176   0.04468   0.00252  -0.00125   0.02039
O154      0.03757   0.08278   0.04813   0.00573  -0.00585   0.03686
C155      0.03886   0.07499   0.12005   0.01633  -0.00717   0.04419
C156      0.06053   0.07158   0.10469   0.01903  -0.02059   0.03300
C157      0.03534   0.07072   0.09845   0.01067   0.00292   0.04794
C158      0.08238   0.13583   0.10520   0.03224   0.00666   0.08330
C159      0.09238   0.11450   0.13602   0.02359  -0.01224   0.06506
C160      0.05411   0.08448   0.12998   0.02187  -0.01482   0.04016
C161      0.03104   0.07694   0.04627   0.00301  -0.00789   0.02690
O172      0.02715   0.05176   0.04468   0.00252   0.00125  -0.02039
O173      0.03757   0.08278   0.04813   0.00573   0.00585  -0.03686
C174      0.03886   0.07499   0.12005   0.01633   0.00717  -0.04419
C175      0.06053   0.07158   0.10469   0.01903   0.02059  -0.03300
C176      0.03534   0.07072   0.09845   0.01067  -0.00292  -0.04794
C177      0.08238   0.13583   0.10520   0.03224  -0.00666  -0.08330
C178      0.09238   0.11450   0.13602   0.02359   0.01224  -0.06506
C179      0.05411   0.08448   0.12998   0.02187   0.01482  -0.04016
C180      0.03104   0.07694   0.04627   0.00301   0.00789  -0.02690
O191      0.05176   0.02715   0.04468  -0.00252  -0.02039  -0.00125
O192      0.08278   0.03757   0.04813  -0.00573  -0.03686  -0.00585
C193      0.07499   0.03886   0.12005  -0.01633  -0.04419  -0.00717
C194      0.07158   0.06053   0.10469  -0.01903  -0.03300  -0.02059
C195      0.07072   0.03534   0.09845  -0.01067  -0.04794   0.00292
C196      0.13583   0.08238   0.10520  -0.03224  -0.08330   0.00666
C197      0.11450   0.09238   0.13602  -0.02359  -0.06506  -0.01224
C198      0.08448   0.05411   0.12998  -0.02187  -0.04016  -0.01482
C199      0.07694   0.03104   0.04627  -0.00301  -0.02690  -0.00789
O210      0.05176   0.02715   0.04468  -0.00252   0.02039   0.00125
O211      0.08278   0.03757   0.04813  -0.00573   0.03686   0.00585
C212      0.07499   0.03886   0.12005  -0.01633   0.04419   0.00717
C213      0.07158   0.06053   0.10469  -0.01903   0.03300   0.02059
C214      0.07072   0.03534   0.09845  -0.01067   0.04794  -0.00292
C215      0.13583   0.08238   0.10520  -0.03224   0.08330  -0.00666
C216      0.11450   0.09238   0.13602  -0.02359   0.06506   0.01224
C217      0.08448   0.05411   0.12998  -0.02187   0.04016   0.01482
C218      0.07694   0.03104   0.04627  -0.00301   0.02690   0.00789
O229      0.02715   0.05176   0.04468  -0.00252  -0.00125  -0.02039
O230      0.03757   0.08278   0.04813  -0.00573  -0.00585  -0.03686
C231      0.03886   0.07499   0.12005  -0.01633  -0.00717  -0.04419
C232      0.06053   0.07158   0.10469  -0.01903  -0.02059  -0.03300
C233      0.03534   0.07072   0.09845  -0.01067   0.00292  -0.04794
C234      0.08238   0.13583   0.10520  -0.03224   0.00666  -0.08330
C235      0.09238   0.11450   0.13602  -0.02359  -0.01224  -0.06506
C236      0.05411   0.08448   0.12998  -0.02187  -0.01482  -0.04016
C237      0.03104   0.07694   0.04627  -0.00301  -0.00789  -0.02690
O248      0.02715   0.05176   0.04468  -0.00252   0.00125   0.02039
O249      0.03757   0.08278   0.04813  -0.00573   0.00585   0.03686
C250      0.03886   0.07499   0.12005  -0.01633   0.00717   0.04419
C251      0.06053   0.07158   0.10469  -0.01903   0.02059   0.03300
C252      0.03534   0.07072   0.09845  -0.01067  -0.00292   0.04794
C253      0.08238   0.13583   0.10520  -0.03224  -0.00666   0.08330
C254      0.09238   0.11450   0.13602  -0.02359   0.01224   0.06506
C255      0.05411   0.08448   0.12998  -0.02187   0.01482   0.04016
C256      0.03104   0.07694   0.04627  -0.00301   0.00789   0.02690
O267      0.05176   0.02715   0.04468   0.00252  -0.02039   0.00125
O268      0.08278   0.03757   0.04813   0.00573  -0.03686   0.00585
C269      0.07499   0.03886   0.12005   0.01633  -0.04419   0.00717
C270      0.07158   0.06053   0.10469   0.01903  -0.03300   0.02059
C271      0.07072   0.03534   0.09845   0.01067  -0.04794  -0.00292
C272      0.13583   0.08238   0.10520   0.03224  -0.08330  -0.00666
C273      0.11450   0.09238   0.13602   0.02359  -0.06506   0.01224
C274      0.08448   0.05411   0.12998   0.02187  -0.04016   0.01482
C275      0.07694   0.03104   0.04627   0.00301  -0.02690   0.00789
O286      0.05176   0.02715   0.04468   0.00252   0.02039  -0.00125
O287      0.08278   0.03757   0.04813   0.00573   0.03686  -0.00585
C288      0.07499   0.03886   0.12005   0.01633   0.04419  -0.00717
C289      0.07158   0.06053   0.10469   0.01903   0.03300  -0.02059
C290      0.07072   0.03534   0.09845   0.01067   0.04794   0.00292
C291      0.13583   0.08238   0.10520   0.03224   0.08330   0.00666
C292      0.11450   0.09238   0.13602   0.02359   0.06506  -0.01224
C293      0.08448   0.05411   0.12998   0.02187   0.04016  -0.01482
C294      0.07694   0.03104   0.04627   0.00301   0.02690  -0.00789
Zr305     0.01951   0.03752   0.02233   0.00000  -0.00098   0.00000
O306      0.02387   0.08887   0.01798   0.00000  -0.00032   0.00000
Zr307     0.01951   0.03752   0.02233   0.00000   0.00098   0.00000
O308      0.02387   0.08887   0.01798   0.00000   0.00032   0.00000
Zr309     0.03752   0.01951   0.02233   0.00000   0.00000  -0.00098
O310      0.08887   0.02387   0.01798   0.00000   0.00000  -0.00032
Zr311     0.03752   0.01951   0.02233   0.00000   0.00000   0.00098
O312      0.08887   0.02387   0.01798   0.00000   0.00000   0.00032
Zr313     0.01951   0.03752   0.02233   0.00000  -0.00098   0.00000
O314      0.02387   0.08887   0.01798   0.00000  -0.00032   0.00000
Zr315     0.01951   0.03752   0.02233   0.00000   0.00098   0.00000
O316      0.02387   0.08887   0.01798   0.00000   0.00032   0.00000
Zr317     0.03752   0.01951   0.02233   0.00000   0.00000   0.00098
O318      0.08887   0.02387   0.01798   0.00000   0.00000   0.00032
Zr319     0.03752   0.01951   0.02233   0.00000   0.00000  -0.00098
O320      0.08887   0.02387   0.01798   0.00000   0.00000  -0.00032
Zr321     0.02518   0.03559   0.03511   0.00000   0.00000   0.00000
Zr322     0.02518   0.03559   0.03511   0.00000   0.00000   0.00000
Zr323     0.03559   0.02518   0.03511   0.00000   0.00000   0.00000
Zr324     0.03559   0.02518   0.03511   0.00000   0.00000   0.00000
O325      0.02385   0.04336   0.02304   0.00000   0.00000   0.01246
O326      0.02385   0.04336   0.02304   0.00000   0.00000  -0.01246
O327      0.04336   0.02385   0.02304   0.00000  -0.01246   0.00000
O328      0.04336   0.02385   0.02304   0.00000   0.01246   0.00000
O329      0.02385   0.04336   0.02304   0.00000   0.00000  -0.01246
O330      0.02385   0.04336   0.02304   0.00000   0.00000   0.01246
O331      0.04336   0.02385   0.02304   0.00000  -0.01246   0.00000
O332      0.04336   0.02385   0.02304   0.00000   0.01246   0.00000
O333      0.02870   0.05204   0.02690  -0.01126   0.00000   0.00000
O334      0.02870   0.05204   0.02690  -0.01126   0.00000   0.00000
O335      0.05204   0.02870   0.02690   0.01126   0.00000   0.00000
O336      0.05204   0.02870   0.02690   0.01126   0.00000   0.00000
O337      0.02870   0.05204   0.02690   0.01126   0.00000   0.00000
O338      0.02870   0.05204   0.02690   0.01126   0.00000   0.00000
O339      0.05204   0.02870   0.02690  -0.01126   0.00000   0.00000
O340      0.05204   0.02870   0.02690  -0.01126   0.00000   0.00000
Ni349     0.02720   0.08497   0.03019   0.00000   0.00000   0.02170
Ni350     0.02720   0.08497   0.03019   0.00000   0.00000  -0.02170
Ni351     0.08497   0.02720   0.03019   0.00000  -0.02170   0.00000
Ni352     0.08497   0.02720   0.03019   0.00000   0.02170   0.00000
Ni353     0.02720   0.08497   0.03019   0.00000   0.00000  -0.02170
Ni354     0.02720   0.08497   0.03019   0.00000   0.00000   0.02170
Ni355     0.08497   0.02720   0.03019   0.00000  -0.02170   0.00000
Ni356     0.08497   0.02720   0.03019   0.00000   0.02170   0.00000
Ni357     0.02720   0.08497   0.03019   0.00000   0.00000   0.02170
Ni358     0.02720   0.08497   0.03019   0.00000   0.00000  -0.02170
Ni359     0.02720   0.08497   0.03019   0.00000   0.00000  -0.02170
Ni360     0.02720   0.08497   0.03019   0.00000   0.00000   0.02170
Ni361     0.08497   0.02720   0.03019   0.00000  -0.02170   0.00000
Ni362     0.08497   0.02720   0.03019   0.00000   0.02170   0.00000
Ni363     0.08497   0.02720   0.03019   0.00000  -0.02170   0.00000
Ni364     0.08497   0.02720   0.03019   0.00000   0.02170   0.00000
loop_
_geom_bond_atom_site_label_1
_geom_bond_atom_site_label_2
_geom_bond_distance
_geom_bond_site_symmetry_2
_ccdc_geom_bond_type
O1     C9      1.288   .     D
O1     Zr305   2.128   .     S
O2     C9      1.289   .     S
O2     Ni349   1.783   .     S
O2     Ni357   1.783   1_455 S
C3     C5      1.414   .     S
C3     C8      1.424   .     D
C3     H12     1.083   .     S
C4     C7      1.411   .     D
C4     C8      1.420   .     S
C4     C118    1.527   .     S
C5     C6      1.412   .     D
C5     C9      1.526   .     S
C6     C7      1.417   .     S
C6     H13     1.083   .     S
C7     H14     1.083   .     S
C8     C143    1.505   .     S
C10    H15     1.110   .     S
C10    H16     1.110   .     S
C10    H17     1.111   .     S
C10    C141    1.505   .     S
O11    H18     0.987   .     S
O11    Zr324   2.151   1_565 S
O11    H114    0.981   .     S
H19    O106    0.981   .     S
O20    C28     1.288   .     D
O20    Zr307   2.128   .     S
O21    C28     1.289   .     S
O21    Ni350   1.783   1_655 S
O21    Ni358   1.783   .     S
C22    C24     1.414   .     S
C22    C27     1.424   .     D
C22    H31     1.083   .     S
C23    C26     1.411   .     D
C23    C27     1.420   .     S
C23    C137    1.527   .     S
C24    C25     1.412   .     D
C24    C28     1.526   .     S
C25    C26     1.417   .     S
C25    H32     1.083   .     S
C26    H33     1.083   .     S
C27    C124    1.505   .     S
C29    H34     1.110   .     S
C29    H35     1.110   .     S
C29    H36     1.111   .     S
C29    C122    1.505   .     S
O30    H37     0.987   .     S
O30    Zr323   2.151   .     S
O30    H95     0.981   .     S
H38    O87     0.981   .     S
O39    C47     1.288   .     D
O39    Zr309   2.128   .     S
O40    C47     1.289   .     S
O40    Ni351   1.783   .     S
O40    Ni361   1.783   1_545 S
C41    C43     1.414   .     S
C41    C46     1.424   .     D
C41    H50     1.083   .     S
C42    C45     1.411   .     D
C42    C46     1.420   .     S
C42    C80     1.527   .     S
C43    C44     1.412   .     D
C43    C47     1.526   .     S
C44    C45     1.417   .     S
C44    H51     1.083   .     S
C45    H52     1.083   .     S
C46    C105    1.505   .     S
C48    H53     1.110   .     S
C48    H54     1.110   .     S
C48    H55     1.111   .     S
C48    C103    1.505   .     S
O49    H56     0.987   .     S
O49    Zr321   2.151   .     S
O49    H133    0.981   .     S
H57    O125    0.981   .     S
O58    C66     1.288   .     D
O58    Zr311   2.128   .     S
O59    C66     1.289   .     S
O59    Ni352   1.783   1_565 S
O59    Ni362   1.783   .     S
C60    C62     1.414   .     S
C60    C65     1.424   .     D
C60    H69     1.083   .     S
C61    C64     1.411   .     D
C61    C65     1.420   .     S
C61    C99     1.527   .     S
C62    C63     1.412   .     D
C62    C66     1.526   .     S
C63    C64     1.417   .     S
C63    H70     1.083   .     S
C64    H71     1.083   .     S
C65    C86     1.505   .     S
C67    H72     1.110   .     S
C67    H73     1.110   .     S
C67    H74     1.111   .     S
C67    C84     1.505   .     S
O68    H75     0.987   .     S
O68    Zr322   2.151   1_655 S
O68    H152    0.981   .     S
H76    O144    0.981   .     S
O77    C85     1.288   .     D
O77    Zr313   2.128   .     S
O78    C85     1.289   .     S
O78    Ni353   1.783   1_655 S
O78    Ni359   1.783   .     S
C79    C81     1.414   .     S
C79    C84     1.424   .     D
C79    H88     1.083   .     S
C80    C83     1.411   .     D
C80    C84     1.420   .     S
C81    C82     1.412   .     D
C81    C85     1.526   .     S
C82    C83     1.417   .     S
C82    H89     1.083   .     S
C83    H90     1.083   .     S
C86    H91     1.110   .     S
C86    H92     1.110   .     S
C86    H93     1.111   .     S
O87    H94     0.987   .     S
O87    Zr323   2.151   1_565 S
O96    C104    1.288   .     D
O96    Zr315   2.128   .     S
O97    C104    1.289   .     S
O97    Ni354   1.783   .     S
O97    Ni360   1.783   1_455 S
C98    C100    1.414   .     S
C98    C103    1.424   .     D
C98    H107    1.083   .     S
C99    C102    1.411   .     D
C99    C103    1.420   .     S
C100   C101    1.412   .     D
C100   C104    1.526   .     S
C101   C102    1.417   .     S
C101   H108    1.083   .     S
C102   H109    1.083   .     S
C105   H110    1.110   .     S
C105   H111    1.110   .     S
C105   H112    1.111   .     S
O106   H113    0.987   .     S
O106   Zr324   2.151   .     S
O115   C123    1.288   .     D
O115   Zr317   2.128   .     S
O116   C123    1.289   .     S
O116   Ni355   1.783   .     S
O116   Ni363   1.783   1_545 S
C117   C119    1.414   .     S
C117   C122    1.424   .     D
C117   H126    1.083   .     S
C118   C121    1.411   .     D
C118   C122    1.420   .     S
C119   C120    1.412   .     D
C119   C123    1.526   .     S
C120   C121    1.417   .     S
C120   H127    1.083   .     S
C121   H128    1.083   .     S
C124   H129    1.110   .     S
C124   H130    1.110   .     S
C124   H131    1.111   .     S
O125   H132    0.987   .     S
O125   Zr321   2.151   1_656 S
O134   C142    1.288   .     D
O134   Zr319   2.128   .     S
O135   C142    1.289   .     S
O135   Ni356   1.783   1_565 S
O135   Ni364   1.783   .     S
C136   C138    1.414   .     S
C136   C141    1.424   .     D
C136   H145    1.083   .     S
C137   C140    1.411   .     D
C137   C141    1.420   .     S
C138   C139    1.412   .     D
C138   C142    1.526   .     S
C139   C140    1.417   .     S
C139   H146    1.083   .     S
C140   H147    1.083   .     S
C143   H148    1.110   .     S
C143   H149    1.110   .     S
C143   H150    1.111   .     S
O144   H151    0.987   .     S
O144   Zr322   2.151   1_556 S
O153   C161    1.288   .     D
O153   Zr313   2.128   .     S
O154   C161    1.289   .     S
O154   Ni354   1.783   1_655 S
O154   Ni360   1.783   .     S
C155   C157    1.414   .     S
C155   C160    1.424   .     D
C155   H164    1.083   .     S
C156   C159    1.411   .     D
C156   C160    1.420   .     S
C156   C270    1.527   .     S
C157   C158    1.412   .     D
C157   C161    1.526   .     S
C158   C159    1.417   .     S
C158   H165    1.083   .     S
C159   H166    1.083   .     S
C160   C295    1.505   .     S
C162   H167    1.110   .     S
C162   H168    1.110   .     S
C162   H169    1.111   .     S
C162   C293    1.505   .     S
O163   H170    0.987   .     S
O163   Zr323   2.151   .     S
O163   H266    0.981   .     S
H171   O258    0.981   .     S
O172   C180    1.288   .     D
O172   Zr315   2.128   .     S
O173   C180    1.289   .     S
O173   Ni353   1.783   .     S
O173   Ni359   1.783   1_455 S
C174   C176    1.414   .     S
C174   C179    1.424   .     D
C174   H183    1.083   .     S
C175   C178    1.411   .     D
C175   C179    1.420   .     S
C175   C289    1.527   .     S
C176   C177    1.412   .     D
C176   C180    1.526   .     S
C177   C178    1.417   .     S
C177   H184    1.083   .     S
C178   H185    1.083   .     S
C179   C276    1.505   .     S
C181   H186    1.110   .     S
C181   H187    1.110   .     S
C181   H188    1.111   .     S
C181   C274    1.505   .     S
O182   H189    0.987   .     S
O182   Zr324   2.151   1_565 S
O182   H247    0.981   .     S
H190   O239    0.981   .     S
O191   C199    1.288   .     D
O191   Zr319   2.128   .     S
O192   C199    1.289   .     S
O192   Ni355   1.783   1_565 S
O192   Ni363   1.783   .     S
C193   C195    1.414   .     S
C193   C198    1.424   .     D
C193   H202    1.083   .     S
C194   C197    1.411   .     D
C194   C198    1.420   .     S
C194   C232    1.527   .     S
C195   C196    1.412   .     D
C195   C199    1.526   .     S
C196   C197    1.417   .     S
C196   H203    1.083   .     S
C197   H204    1.083   .     S
C198   C257    1.505   .     S
C200   H205    1.110   .     S
C200   H206    1.110   .     S
C200   H207    1.111   .     S
C200   C255    1.505   .     S
O201   H208    0.987   .     S
O201   Zr322   2.151   1_656 S
O201   H285    0.981   .     S
H209   O277    0.981   .     S
O210   C218    1.288   .     D
O210   Zr317   2.128   .     S
O211   C218    1.289   .     S
O211   Ni356   1.783   .     S
O211   Ni364   1.783   1_545 S
C212   C214    1.414   .     S
C212   C217    1.424   .     D
C212   H221    1.083   .     S
C213   C216    1.411   .     D
C213   C217    1.420   .     S
C213   C251    1.527   .     S
C214   C215    1.412   .     D
C214   C218    1.526   .     S
C215   C216    1.417   .     S
C215   H222    1.083   .     S
C216   H223    1.083   .     S
C217   C238    1.505   .     S
C219   H224    1.110   .     S
C219   H225    1.110   .     S
C219   H226    1.111   .     S
C219   C236    1.505   .     S
O220   H227    0.987   .     S
O220   Zr321   2.151   1_556 S
O220   H304    0.981   .     S
H228   O296    0.981   .     S
O229   C237    1.288   .     D
O229   Zr305   2.128   .     S
O230   C237    1.289   .     S
O230   Ni350   1.783   .     S
O230   Ni358   1.783   1_455 S
C231   C233    1.414   .     S
C231   C236    1.424   .     D
C231   H240    1.083   .     S
C232   C235    1.411   .     D
C232   C236    1.420   .     S
C233   C234    1.412   .     D
C233   C237    1.526   .     S
C234   C235    1.417   .     S
C234   H241    1.083   .     S
C235   H242    1.083   .     S
C238   H243    1.110   .     S
C238   H244    1.110   .     S
C238   H245    1.111   .     S
O239   H246    0.987   .     S
O239   Zr324   2.151   .     S
O248   C256    1.288   .     D
O248   Zr307   2.128   .     S
O249   C256    1.289   .     S
O249   Ni349   1.783   1_655 S
O249   Ni357   1.783   .     S
C250   C252    1.414   .     S
C250   C255    1.424   .     D
C250   H259    1.083   .     S
C251   C254    1.411   .     D
C251   C255    1.420   .     S
C252   C253    1.412   .     D
C252   C256    1.526   .     S
C253   C254    1.417   .     S
C253   H260    1.083   .     S
C254   H261    1.083   .     S
C257   H262    1.110   .     S
C257   H263    1.110   .     S
C257   H264    1.111   .     S
O258   H265    0.987   .     S
O258   Zr323   2.151   1_565 S
O267   C275    1.288   .     D
O267   Zr311   2.128   .     S
O268   C275    1.289   .     S
O268   Ni351   1.783   1_565 S
O268   Ni361   1.783   .     S
C269   C271    1.414   .     S
C269   C274    1.424   .     D
C269   H278    1.083   .     S
C270   C273    1.411   .     D
C270   C274    1.420   .     S
C271   C272    1.412   .     D
C271   C275    1.526   .     S
C272   C273    1.417   .     S
C272   H279    1.083   .     S
C273   H280    1.083   .     S
C276   H281    1.110   .     S
C276   H282    1.110   .     S
C276   H283    1.111   .     S
O277   H284    0.987   .     S
O277   Zr322   2.151   .     S
O286   C294    1.288   .     D
O286   Zr309   2.128   .     S
O287   C294    1.289   .     S
O287   Ni352   1.783   .     S
O287   Ni362   1.783   1_545 S
C288   C290    1.414   .     S
C288   C293    1.424   .     D
C288   H297    1.083   .     S
C289   C292    1.411   .     D
C289   C293    1.420   .     S
C290   C291    1.412   .     D
C290   C294    1.526   .     S
C291   C292    1.417   .     S
C291   H298    1.083   .     S
C292   H299    1.083   .     S
C295   H300    1.110   .     S
C295   H301    1.110   .     S
C295   H302    1.111   .     S
O296   H303    0.987   .     S
O296   Zr321   2.151   1_655 S
Zr305  O306    2.136   .     S
Zr305  O325    2.126   .     S
Zr305  O326    2.126   .     S
Zr305  O333    2.123   .     S
Zr305  O338    2.123   .     S
O306   Ni349   1.810   .     S
O306   Ni350   1.810   .     S
O306   Ni357   1.810   1_455 S
O306   Ni358   1.810   1_455 S
Zr307  O308    2.136   .     S
Zr307  O326    2.126   1_655 S
Zr307  O325    2.126   1_655 S
Zr307  O334    2.123   .     S
Zr307  O337    2.123   .     S
O308   Ni349   1.810   1_655 S
O308   Ni350   1.810   1_655 S
O308   Ni357   1.810   .     S
O308   Ni358   1.810   .     S
Zr309  O310    2.136   .     S
Zr309  O327    2.126   .     S
Zr309  O328    2.126   .     S
Zr309  O335    2.123   .     S
Zr309  O339    2.123   .     S
O310   Ni351   1.810   .     S
O310   Ni352   1.810   .     S
O310   Ni361   1.810   1_545 S
O310   Ni362   1.810   1_545 S
Zr311  O312    2.136   .     S
Zr311  O328    2.126   1_565 S
Zr311  O327    2.126   1_565 S
Zr311  O336    2.123   .     S
Zr311  O340    2.123   .     S
O312   Ni351   1.810   1_565 S
O312   Ni352   1.810   1_565 S
O312   Ni361   1.810   .     S
O312   Ni362   1.810   .     S
Zr313  O314    2.136   .     S
Zr313  O329    2.126   1_655 S
Zr313  O330    2.126   1_655 S
Zr313  O337    2.123   1_556 S
Zr313  O334    2.123   1_556 S
O314   Ni353   1.810   1_655 S
O314   Ni354   1.810   1_655 S
O314   Ni359   1.810   .     S
O314   Ni360   1.810   .     S
Zr315  O316    2.136   .     S
Zr315  O330    2.126   .     S
Zr315  O329    2.126   .     S
Zr315  O338    2.123   1_556 S
Zr315  O333    2.123   1_556 S
O316   Ni353   1.810   .     S
O316   Ni354   1.810   .     S
O316   Ni359   1.810   1_455 S
O316   Ni360   1.810   1_455 S
Zr317  O318    2.136   .     S
Zr317  O331    2.126   .     S
Zr317  O332    2.126   .     S
Zr317  O339    2.123   .     S
Zr317  O335    2.123   .     S
O318   Ni355   1.810   .     S
O318   Ni356   1.810   .     S
O318   Ni363   1.810   1_545 S
O318   Ni364   1.810   1_545 S
Zr319  O320    2.136   .     S
Zr319  O332    2.126   1_565 S
Zr319  O331    2.126   1_565 S
Zr319  O340    2.123   .     S
Zr319  O336    2.123   .     S
O320   Ni355   1.810   1_565 S
O320   Ni356   1.810   1_565 S
O320   Ni363   1.810   .     S
O320   Ni364   1.810   .     S
Zr321  O325    2.292   .     S
Zr321  O329    2.292   1_554 S
Zr321  O333    2.107   .     S
Zr321  O337    2.107   1_455 S
Zr321  O125    2.151   1_454 S
Zr321  O220    2.151   1_554 S
Zr321  O296    2.151   1_455 S
Zr322  O326    2.292   .     S
Zr322  O330    2.292   1_554 S
Zr322  O334    2.107   1_455 S
Zr322  O338    2.107   .     S
Zr322  O68     2.151   1_455 S
Zr322  O144    2.151   1_554 S
Zr322  O201    2.151   1_454 S
Zr323  O327    2.292   .     S
Zr323  O332    2.292   .     S
Zr323  O335    2.107   .     S
Zr323  O340    2.107   1_545 S
Zr323  O87     2.151   1_545 S
Zr323  O258    2.151   1_545 S
Zr324  O328    2.292   .     S
Zr324  O331    2.292   .     S
Zr324  O336    2.107   1_545 S
Zr324  O339    2.107   .     S
Zr324  O11     2.151   1_545 S
Zr324  O182    2.151   1_545 S
O325   Zr307   2.126   1_455 S
O325   Ni349   1.915   .     S
O325   Ni357   1.915   1_455 S
O326   Zr307   2.126   1_455 S
O326   Ni350   1.915   .     S
O326   Ni358   1.915   1_455 S
O327   Zr311   2.126   1_545 S
O327   Ni351   1.915   .     S
O327   Ni361   1.915   1_545 S
O328   Zr311   2.126   1_545 S
O328   Ni352   1.915   .     S
O328   Ni362   1.915   1_545 S
O329   Zr313   2.126   1_455 S
O329   Zr321   2.292   1_556 S
O329   Ni353   1.915   .     S
O329   Ni359   1.915   1_455 S
O330   Zr313   2.126   1_455 S
O330   Zr322   2.292   1_556 S
O330   Ni354   1.915   .     S
O330   Ni360   1.915   1_455 S
O331   Zr319   2.126   1_545 S
O331   Ni355   1.915   .     S
O331   Ni363   1.915   1_545 S
O332   Zr319   2.126   1_545 S
O332   Ni356   1.915   .     S
O332   Ni364   1.915   1_545 S
O333   Zr315   2.123   1_554 S
O333   H347    0.983   .     S
O334   Zr313   2.123   1_554 S
O334   Zr322   2.107   1_655 S
O334   H348    0.983   .     S
O335   H345    0.983   .     S
O336   Zr324   2.107   1_565 S
O336   H346    0.983   .     S
O337   Zr313   2.123   1_554 S
O337   Zr321   2.107   1_655 S
O337   H343    0.983   .     S
O338   Zr315   2.123   1_554 S
O338   H344    0.983   .     S
O339   H341    0.983   .     S
O340   Zr323   2.107   1_565 S
O340   H342    0.983   .     S
Ni349  O308    1.810   1_455 S
Ni349  O249    1.783   1_455 S
Ni349  Ni350   2.709   .     S
Ni349  Ni358   2.709   1_455 S
Ni350  O21     1.783   1_455 S
Ni350  O308    1.810   1_455 S
Ni350  Ni357   2.709   1_455 S
Ni351  O268    1.783   1_545 S
Ni351  O312    1.810   1_545 S
Ni351  Ni352   2.709   .     S
Ni351  Ni362   2.709   1_545 S
Ni352  O312    1.810   1_545 S
Ni352  O59     1.783   1_545 S
Ni352  Ni361   2.709   1_545 S
Ni353  O314    1.810   1_455 S
Ni353  O78     1.783   1_455 S
Ni353  Ni354   2.709   .     S
Ni353  Ni360   2.709   1_455 S
Ni354  O154    1.783   1_455 S
Ni354  O314    1.810   1_455 S
Ni354  Ni359   2.709   1_455 S
Ni355  O320    1.810   1_545 S
Ni355  O192    1.783   1_545 S
Ni355  Ni356   2.709   .     S
Ni355  Ni364   2.709   1_545 S
Ni356  O135    1.783   1_545 S
Ni356  O320    1.810   1_545 S
Ni356  Ni363   2.709   1_545 S
Ni357  O306    1.810   1_655 S
Ni357  Ni350   2.709   1_655 S
Ni357  O2      1.783   1_655 S
Ni357  O325    1.915   1_655 S
Ni357  Ni358   2.709   .     S
Ni358  O230    1.783   1_655 S
Ni358  O306    1.810   1_655 S
Ni358  Ni349   2.709   1_655 S
Ni358  O326    1.915   1_655 S
Ni359  O316    1.810   1_655 S
Ni359  Ni354   2.709   1_655 S
Ni359  O173    1.783   1_655 S
Ni359  O329    1.915   1_655 S
Ni359  Ni360   2.709   .     S
Ni360  O97     1.783   1_655 S
Ni360  O316    1.810   1_655 S
Ni360  Ni353   2.709   1_655 S
Ni360  O330    1.915   1_655 S
Ni361  O40     1.783   1_565 S
Ni361  O310    1.810   1_565 S
Ni361  Ni352   2.709   1_565 S
Ni361  O327    1.915   1_565 S
Ni361  Ni362   2.709   .     S
Ni362  O310    1.810   1_565 S
Ni362  O287    1.783   1_565 S
Ni362  Ni351   2.709   1_565 S
Ni362  O328    1.915   1_565 S
Ni363  O318    1.810   1_565 S
Ni363  O116    1.783   1_565 S
Ni363  Ni356   2.709   1_565 S
Ni363  O331    1.915   1_565 S
Ni363  Ni364   2.709   .     S
Ni364  O211    1.783   1_565 S
Ni364  O318    1.810   1_565 S
Ni364  Ni355   2.709   1_565 S
Ni364  O332    1.915   1_565 S
