data_06-E3
_audit_creation_date              2025-10-29
_audit_creation_method            'Materials Studio'
_symmetry_space_group_name_H-M    'P1'
_symmetry_Int_Tables_number       1
_symmetry_cell_setting            triclinic
loop_
_symmetry_equiv_pos_as_xyz
  x,y,z
_cell_length_a                    24.1696
_cell_length_b                    24.1696
_cell_length_c                    18.9154
_cell_angle_alpha                 90.0000
_cell_angle_beta                  90.0000
_cell_angle_gamma                 90.0000
loop_
_atom_site_label
_atom_site_type_symbol
_atom_site_fract_x
_atom_site_fract_y
_atom_site_fract_z
_atom_site_U_iso_or_equiv
_atom_site_adp_type
_atom_site_occupancy
O1     O     0.15504   0.50000   0.06064   0.03213  Uani   1.00
C2     C     0.28220   0.50000  -0.06295   0.11487  Uani   1.00
C3     C     0.34223   0.50000  -0.06295   0.16566  Uani   1.00
N4     N     0.47191   0.50000  -0.06128   0.00000  Uiso   1.00
O5     O     0.84496   0.50000   0.06064   0.03213  Uani   1.00
C6     C     0.71780   0.50000  -0.06295   0.11487  Uani   1.00
C7     C     0.65777   0.50000  -0.06295   0.16566  Uani   1.00
N8     N     0.52809   0.50000  -0.06128   0.00000  Uiso   1.00
O9     O     0.50000   0.15504   0.56064   0.03213  Uani   1.00
C10    C     0.50000   0.28220   0.43705   0.11487  Uani   1.00
C11    C     0.50000   0.34223   0.43705   0.16566  Uani   1.00
N12    N     0.50000   0.47191   0.43872   0.00000  Uiso   1.00
O13    O     0.50000   0.84496   0.56064   0.03213  Uani   1.00
C14    C     0.50000   0.71780   0.43705   0.11487  Uani   1.00
C15    C     0.50000   0.65777   0.43705   0.16566  Uani   1.00
N16    N     0.50000   0.52809   0.43872   0.00000  Uiso   1.00
O17    O     0.84496   0.50000  -0.06064   0.03213  Uani   1.00
C18    C     0.71780   0.50000   0.06295   0.11487  Uani   1.00
C19    C     0.65777   0.50000   0.06295   0.16566  Uani   1.00
N20    N     0.52809   0.50000   0.06128   0.00000  Uiso   1.00
O21    O     0.15504   0.50000  -0.06064   0.03213  Uani   1.00
C22    C     0.28220   0.50000   0.06295   0.11487  Uani   1.00
C23    C     0.34223   0.50000   0.06295   0.16566  Uani   1.00
N24    N     0.47191   0.50000   0.06128   0.00000  Uiso   1.00
O25    O     0.50000   0.15504   0.43936   0.03213  Uani   1.00
C26    C     0.50000   0.28220   0.56295   0.11487  Uani   1.00
C27    C     0.50000   0.34223   0.56295   0.16566  Uani   1.00
N28    N     0.50000   0.47191   0.56128   0.00000  Uiso   1.00
O29    O     0.50000   0.84496   0.43936   0.03213  Uani   1.00
C30    C     0.50000   0.71780   0.56295   0.11487  Uani   1.00
C31    C     0.50000   0.65777   0.56295   0.16566  Uani   1.00
N32    N     0.50000   0.52809   0.56128   0.00000  Uiso   1.00
C33    C     0.18320   0.50000   0.00000   0.03219  Uani   1.00
C34    C     0.24947   0.50000   0.00000   0.05415  Uani   1.00
C35    C     0.37496   0.50000   0.00000   0.16297  Uani   1.00
C36    C     0.44122   0.50000   0.00000   0.11145  Uani   1.00
C37    C     0.81680   0.50000   0.00000   0.03219  Uani   1.00
C38    C     0.75053   0.50000   0.00000   0.05415  Uani   1.00
C39    C     0.62504   0.50000   0.00000   0.16297  Uani   1.00
C40    C     0.55878   0.50000   0.00000   0.11145  Uani   1.00
C41    C     0.50000   0.18320   0.50000   0.03219  Uani   1.00
C42    C     0.50000   0.24947   0.50000   0.05415  Uani   1.00
C43    C     0.50000   0.37496   0.50000   0.16297  Uani   1.00
C44    C     0.50000   0.44122   0.50000   0.11145  Uani   1.00
C45    C     0.50000   0.81680   0.50000   0.03219  Uani   1.00
C46    C     0.50000   0.75053   0.50000   0.05415  Uani   1.00
C47    C     0.50000   0.62504   0.50000   0.16297  Uani   1.00
C48    C     0.50000   0.55878   0.50000   0.11145  Uani   1.00
H49    H     0.50000   0.63679   0.61349   0.00000  Uiso   1.00
H50    H     0.50000   0.73879   0.61349   0.00000  Uiso   1.00
H51    H     0.50000   0.36321   0.61349   0.00000  Uiso   1.00
H52    H     0.50000   0.26121   0.61349   0.00000  Uiso   1.00
H53    H     0.36321   0.50000   0.11349   0.00000  Uiso   1.00
H54    H     0.26121   0.50000   0.11349   0.00000  Uiso   1.00
H55    H     0.63679   0.50000   0.11349   0.00000  Uiso   1.00
H56    H     0.73879   0.50000   0.11349   0.00000  Uiso   1.00
H57    H     0.50000   0.63679   0.38651   0.00000  Uiso   1.00
H58    H     0.50000   0.73879   0.38651   0.00000  Uiso   1.00
H59    H     0.50000   0.36321   0.38651   0.00000  Uiso   1.00
H60    H     0.50000   0.26121   0.38651   0.00000  Uiso   1.00
H61    H     0.63679   0.50000  -0.11349   0.00000  Uiso   1.00
H62    H     0.73879   0.50000  -0.11349   0.00000  Uiso   1.00
H63    H     0.36321   0.50000  -0.11349   0.00000  Uiso   1.00
H64    H     0.26121   0.50000  -0.11349   0.00000  Uiso   1.00
loop_
_atom_site_aniso_label
_atom_site_aniso_U_11
_atom_site_aniso_U_22
_atom_site_aniso_U_33
_atom_site_aniso_U_12
_atom_site_aniso_U_13
_atom_site_aniso_U_23
O1        0.02926   0.03617   0.03095   0.00000  -0.00048   0.00000
C2        0.03613   0.20322   0.10527   0.00000   0.01946   0.00000
C3        0.03186   0.36438   0.10075   0.00000   0.00800   0.00000
O5        0.02926   0.03617   0.03095   0.00000   0.00048   0.00000
C6        0.03613   0.20322   0.10527   0.00000  -0.01946   0.00000
C7        0.03186   0.36438   0.10075   0.00000  -0.00800   0.00000
O9        0.03617   0.02926   0.03095   0.00000   0.00000  -0.00048
C10       0.20322   0.03613   0.10527   0.00000   0.00000   0.01946
C11       0.36438   0.03186   0.10075   0.00000   0.00000   0.00800
O13       0.03617   0.02926   0.03095   0.00000   0.00000   0.00048
C14       0.20322   0.03613   0.10527   0.00000   0.00000  -0.01946
C15       0.36438   0.03186   0.10075   0.00000   0.00000  -0.00800
O17       0.02926   0.03617   0.03095   0.00000  -0.00048   0.00000
C18       0.03613   0.20322   0.10527   0.00000   0.01946   0.00000
C19       0.03186   0.36438   0.10075   0.00000   0.00800   0.00000
O21       0.02926   0.03617   0.03095   0.00000   0.00048   0.00000
C22       0.03613   0.20322   0.10527   0.00000  -0.01946   0.00000
C23       0.03186   0.36438   0.10075   0.00000  -0.00800   0.00000
O25       0.03617   0.02926   0.03095   0.00000   0.00000   0.00048
C26       0.20322   0.03613   0.10527   0.00000   0.00000  -0.01946
C27       0.36438   0.03186   0.10075   0.00000   0.00000  -0.00800
O29       0.03617   0.02926   0.03095   0.00000   0.00000  -0.00048
C30       0.20322   0.03613   0.10527   0.00000   0.00000   0.01946
C31       0.36438   0.03186   0.10075   0.00000   0.00000   0.00800
C33       0.01453   0.03982   0.04223   0.00000   0.00000   0.00000
C34       0.03432   0.07833   0.04980   0.00000   0.00000   0.00000
C35       0.05075   0.37092   0.06723   0.00000   0.00000   0.00000
C36       0.02745   0.20058   0.10632   0.00000   0.00000   0.00000
C37       0.01453   0.03982   0.04223   0.00000   0.00000   0.00000
C38       0.03432   0.07833   0.04980   0.00000   0.00000   0.00000
C39       0.05075   0.37092   0.06723   0.00000   0.00000   0.00000
C40       0.02745   0.20058   0.10632   0.00000   0.00000   0.00000
C41       0.03982   0.01453   0.04223   0.00000   0.00000   0.00000
C42       0.07833   0.03432   0.04980   0.00000   0.00000   0.00000
C43       0.37092   0.05075   0.06723   0.00000   0.00000   0.00000
C44       0.20058   0.02745   0.10632   0.00000   0.00000   0.00000
C45       0.03982   0.01453   0.04223   0.00000   0.00000   0.00000
C46       0.07833   0.03432   0.04980   0.00000   0.00000   0.00000
C47       0.37092   0.05075   0.06723   0.00000   0.00000   0.00000
C48       0.20058   0.02745   0.10632   0.00000   0.00000   0.00000
loop_
_geom_bond_atom_site_label_1
_geom_bond_atom_site_label_2
_geom_bond_distance
_geom_bond_site_symmetry_2
_ccdc_geom_bond_type
O1     C33     1.334   .     A
C2     C3      1.451   .     A
C2     H64     1.082   .     S
C2     C34     1.430   .     A
C3     H63     1.082   .     S
C3     C35     1.430   .     A
N4     C36     1.376   .     A
N4     N8      1.358   .     A
O5     C37     1.334   .     A
C6     C7      1.451   .     A
C6     H62     1.082   .     S
C6     C38     1.430   .     A
C7     H61     1.082   .     S
C7     C39     1.430   .     A
N8     C40     1.376   .     A
O9     C41     1.334   .     A
C10    C11     1.451   .     A
C10    H60     1.082   .     S
C10    C42     1.430   .     A
C11    H59     1.082   .     S
C11    C43     1.430   .     A
N12    C44     1.376   .     A
N12    N16     1.358   .     A
O13    C45     1.334   .     A
C14    C15     1.451   .     A
C14    H58     1.082   .     S
C14    C46     1.430   .     A
C15    H57     1.082   .     S
C15    C47     1.430   .     A
N16    C48     1.376   .     A
O17    C37     1.334   .     A
C18    C19     1.451   .     A
C18    H56     1.082   .     S
C18    C38     1.430   .     A
C19    H55     1.082   .     S
C19    C39     1.430   .     A
N20    C40     1.376   .     A
N20    N24     1.358   .     A
O21    C33     1.334   .     A
C22    C23     1.451   .     A
C22    H54     1.082   .     S
C22    C34     1.430   .     A
C23    H53     1.082   .     S
C23    C35     1.430   .     A
N24    C36     1.376   .     A
O25    C41     1.334   .     A
C26    C27     1.451   .     A
C26    H52     1.082   .     S
C26    C42     1.430   .     A
C27    H51     1.082   .     S
C27    C43     1.430   .     A
N28    C44     1.376   .     A
N28    N32     1.358   .     A
O29    C45     1.334   .     A
C30    C31     1.451   .     A
C30    H50     1.082   .     S
C30    C46     1.430   .     A
C31    H49     1.082   .     S
C31    C47     1.430   .     A
N32    C48     1.376   .     A
C33    C34     1.602   .     S
C35    C36     1.602   .     S
C37    C38     1.602   .     S
C39    C40     1.602   .     S
C41    C42     1.602   .     S
C43    C44     1.602   .     S
C45    C46     1.602   .     S
C47    C48     1.602   .     S
