data_06-E1
_audit_creation_date              2025-10-29
_audit_creation_method            'Materials Studio'
_symmetry_space_group_name_H-M    'P1'
_symmetry_Int_Tables_number       1
_symmetry_cell_setting            triclinic
loop_
_symmetry_equiv_pos_as_xyz
  x,y,z
_cell_length_a                    24.1696
_cell_length_b                    24.1696
_cell_length_c                    18.9154
_cell_angle_alpha                 90.0000
_cell_angle_beta                  90.0000
_cell_angle_gamma                 90.0000
loop_
_atom_site_label
_atom_site_type_symbol
_atom_site_fract_x
_atom_site_fract_y
_atom_site_fract_z
_atom_site_U_iso_or_equiv
_atom_site_adp_type
_atom_site_occupancy
O1     O     0.15504   0.50000   0.06064   0.03213  Uani   1.00
C2     C     0.27212   0.50000  -0.06395   0.11487  Uani   1.00
C3     C     0.33025   0.50000  -0.06387   0.16566  Uani   1.00
O4     O     0.84496   0.50000   0.06064   0.03213  Uani   1.00
C5     C     0.72788   0.50000  -0.06395   0.11487  Uani   1.00
C6     C     0.66975   0.50000  -0.06387   0.16566  Uani   1.00
O7     O     0.50000   0.15504   0.56064   0.03213  Uani   1.00
C8     C     0.50000   0.27212   0.43605   0.11487  Uani   1.00
C9     C     0.50000   0.33025   0.43613   0.16566  Uani   1.00
O10    O     0.50000   0.84496   0.56064   0.03213  Uani   1.00
C11    C     0.50000   0.72788   0.43605   0.11487  Uani   1.00
C12    C     0.50000   0.66975   0.43613   0.16566  Uani   1.00
O13    O     0.84496   0.50000  -0.06064   0.03213  Uani   1.00
C14    C     0.72788   0.50000   0.06395   0.11487  Uani   1.00
C15    C     0.66975   0.50000   0.06387   0.16566  Uani   1.00
O16    O     0.15504   0.50000  -0.06064   0.03213  Uani   1.00
C17    C     0.27212   0.50000   0.06395   0.11487  Uani   1.00
C18    C     0.33025   0.50000   0.06387   0.16566  Uani   1.00
O19    O     0.50000   0.15504   0.43936   0.03213  Uani   1.00
C20    C     0.50000   0.27212   0.56395   0.11487  Uani   1.00
C21    C     0.50000   0.33025   0.56387   0.16566  Uani   1.00
O22    O     0.50000   0.84496   0.43936   0.03213  Uani   1.00
C23    C     0.50000   0.72788   0.56395   0.11487  Uani   1.00
C24    C     0.50000   0.66975   0.56387   0.16566  Uani   1.00
C25    C     0.18006   0.50000   0.00000   0.03219  Uani   1.00
C26    C     0.24207   0.50000   0.00000   0.05415  Uani   1.00
C27    C     0.35976   0.50000   0.00000   0.16297  Uani   1.00
C28    C     0.47042   0.50000   0.00000   0.17745  Uani   1.00
C29    C     0.42008   0.50000   0.00000   0.11145  Uani   1.00
C30    C     0.81994   0.50000   0.00000   0.03219  Uani   1.00
C31    C     0.75793   0.50000   0.00000   0.05415  Uani   1.00
C32    C     0.64024   0.50000   0.00000   0.16297  Uani   1.00
C33    C     0.52958   0.50000   0.00000   0.17745  Uani   1.00
C34    C     0.57992   0.50000   0.00000   0.11145  Uani   1.00
C35    C     0.50000   0.18006   0.50000   0.03219  Uani   1.00
C36    C     0.50000   0.24207   0.50000   0.05415  Uani   1.00
C37    C     0.50000   0.35976   0.50000   0.16297  Uani   1.00
C38    C     0.50000   0.47042   0.50000   0.17745  Uani   1.00
C39    C     0.50000   0.42008   0.50000   0.11145  Uani   1.00
C40    C     0.50000   0.81994   0.50000   0.03219  Uani   1.00
C41    C     0.50000   0.75793   0.50000   0.05415  Uani   1.00
C42    C     0.50000   0.64024   0.50000   0.16297  Uani   1.00
C43    C     0.50000   0.52958   0.50000   0.17745  Uani   1.00
C44    C     0.50000   0.57992   0.50000   0.11145  Uani   1.00
H45    H     0.50000   0.64780   0.61380   0.00000  Uiso   1.00
H46    H     0.50000   0.74926   0.61427   0.00000  Uiso   1.00
H47    H     0.50000   0.35220   0.61380   0.00000  Uiso   1.00
H48    H     0.50000   0.25074   0.61427   0.00000  Uiso   1.00
H49    H     0.35220   0.50000   0.11380   0.00000  Uiso   1.00
H50    H     0.25074   0.50000   0.11427   0.00000  Uiso   1.00
H51    H     0.64780   0.50000   0.11380   0.00000  Uiso   1.00
H52    H     0.74926   0.50000   0.11427   0.00000  Uiso   1.00
H53    H     0.50000   0.64780   0.38620   0.00000  Uiso   1.00
H54    H     0.50000   0.74926   0.38573   0.00000  Uiso   1.00
H55    H     0.50000   0.35220   0.38620   0.00000  Uiso   1.00
H56    H     0.50000   0.25074   0.38573   0.00000  Uiso   1.00
H57    H     0.64780   0.50000  -0.11380   0.00000  Uiso   1.00
H58    H     0.74926   0.50000  -0.11427   0.00000  Uiso   1.00
H59    H     0.35220   0.50000  -0.11380   0.00000  Uiso   1.00
H60    H     0.25074   0.50000  -0.11427   0.00000  Uiso   1.00
loop_
_atom_site_aniso_label
_atom_site_aniso_U_11
_atom_site_aniso_U_22
_atom_site_aniso_U_33
_atom_site_aniso_U_12
_atom_site_aniso_U_13
_atom_site_aniso_U_23
O1        0.02926   0.03617   0.03095   0.00000  -0.00048   0.00000
C2        0.03613   0.20322   0.10527   0.00000   0.01946   0.00000
C3        0.03186   0.36438   0.10075   0.00000   0.00800   0.00000
O4        0.02926   0.03617   0.03095   0.00000   0.00048   0.00000
C5        0.03613   0.20322   0.10527   0.00000  -0.01946   0.00000
C6        0.03186   0.36438   0.10075   0.00000  -0.00800   0.00000
O7        0.03617   0.02926   0.03095   0.00000   0.00000  -0.00048
C8        0.20322   0.03613   0.10527   0.00000   0.00000   0.01946
C9        0.36438   0.03186   0.10075   0.00000   0.00000   0.00800
O10       0.03617   0.02926   0.03095   0.00000   0.00000   0.00048
C11       0.20322   0.03613   0.10527   0.00000   0.00000  -0.01946
C12       0.36438   0.03186   0.10075   0.00000   0.00000  -0.00800
O13       0.02926   0.03617   0.03095   0.00000  -0.00048   0.00000
C14       0.03613   0.20322   0.10527   0.00000   0.01946   0.00000
C15       0.03186   0.36438   0.10075   0.00000   0.00800   0.00000
O16       0.02926   0.03617   0.03095   0.00000   0.00048   0.00000
C17       0.03613   0.20322   0.10527   0.00000  -0.01946   0.00000
C18       0.03186   0.36438   0.10075   0.00000  -0.00800   0.00000
O19       0.03617   0.02926   0.03095   0.00000   0.00000   0.00048
C20       0.20322   0.03613   0.10527   0.00000   0.00000  -0.01946
C21       0.36438   0.03186   0.10075   0.00000   0.00000  -0.00800
O22       0.03617   0.02926   0.03095   0.00000   0.00000  -0.00048
C23       0.20322   0.03613   0.10527   0.00000   0.00000   0.01946
C24       0.36438   0.03186   0.10075   0.00000   0.00000   0.00800
C25       0.01453   0.03982   0.04223   0.00000   0.00000   0.00000
C26       0.03432   0.07833   0.04980   0.00000   0.00000   0.00000
C27       0.05075   0.37092   0.06723   0.00000   0.00000   0.00000
C28       0.03492   0.37710   0.12034   0.00000   0.00000   0.00000
C29       0.02745   0.20058   0.10632   0.00000   0.00000   0.00000
C30       0.01453   0.03982   0.04223   0.00000   0.00000   0.00000
C31       0.03432   0.07833   0.04980   0.00000   0.00000   0.00000
C32       0.05075   0.37092   0.06723   0.00000   0.00000   0.00000
C33       0.03492   0.37710   0.12034   0.00000   0.00000   0.00000
C34       0.02745   0.20058   0.10632   0.00000   0.00000   0.00000
C35       0.03982   0.01453   0.04223   0.00000   0.00000   0.00000
C36       0.07833   0.03432   0.04980   0.00000   0.00000   0.00000
C37       0.37092   0.05075   0.06723   0.00000   0.00000   0.00000
C38       0.37710   0.03492   0.12034   0.00000   0.00000   0.00000
C39       0.20058   0.02745   0.10632   0.00000   0.00000   0.00000
C40       0.03982   0.01453   0.04223   0.00000   0.00000   0.00000
C41       0.07833   0.03432   0.04980   0.00000   0.00000   0.00000
C42       0.37092   0.05075   0.06723   0.00000   0.00000   0.00000
C43       0.37710   0.03492   0.12034   0.00000   0.00000   0.00000
C44       0.20058   0.02745   0.10632   0.00000   0.00000   0.00000
loop_
_geom_bond_atom_site_label_1
_geom_bond_atom_site_label_2
_geom_bond_distance
_geom_bond_site_symmetry_2
_ccdc_geom_bond_type
O1     C25     1.297   .     A
C2     C3      1.405   .     A
C2     H60     1.083   .     S
C2     C26     1.411   .     A
C3     H59     1.083   .     S
C3     C27     1.403   .     A
O4     C30     1.297   .     A
C5     C6      1.405   .     A
C5     H58     1.083   .     S
C5     C31     1.411   .     A
C6     H57     1.083   .     S
C6     C32     1.403   .     A
O7     C35     1.297   .     A
C8     C9      1.405   .     A
C8     H56     1.083   .     S
C8     C36     1.411   .     A
C9     H55     1.083   .     S
C9     C37     1.403   .     A
O10    C40     1.297   .     A
C11    C12     1.405   .     A
C11    H54     1.083   .     S
C11    C41     1.411   .     A
C12    H53     1.083   .     S
C12    C42     1.403   .     A
O13    C30     1.297   .     A
C14    C15     1.405   .     A
C14    H52     1.083   .     S
C14    C31     1.411   .     A
C15    H51     1.083   .     S
C15    C32     1.403   .     A
O16    C25     1.297   .     A
C17    C18     1.405   .     A
C17    H50     1.083   .     S
C17    C26     1.411   .     A
C18    H49     1.083   .     S
C18    C27     1.403   .     A
O19    C35     1.297   .     A
C20    C21     1.405   .     A
C20    H48     1.083   .     S
C20    C36     1.411   .     A
C21    H47     1.083   .     S
C21    C37     1.403   .     A
O22    C40     1.297   .     A
C23    C24     1.405   .     A
C23    H46     1.083   .     S
C23    C41     1.411   .     A
C24    H45     1.083   .     S
C24    C42     1.403   .     A
C25    C26     1.499   .     S
C27    C29     1.458   .     S
C28    C29     1.217   .     T
C28    C33     1.430   .     S
C30    C31     1.499   .     S
C32    C34     1.458   .     S
C33    C34     1.217   .     T
C35    C36     1.499   .     S
C37    C39     1.458   .     S
C38    C39     1.217   .     T
C38    C43     1.430   .     S
C40    C41     1.499   .     S
C42    C44     1.458   .     S
C43    C44     1.217   .     T
